version 2
run General-0-20220427-19:58:36-21839
attr configname General
attr datetime 20220427-19:58:36
attr experiment General
attr inifile FatTree_4_seed3_jitter.ini
attr iterationvars ""
attr iterationvarsf ""
attr measurement ""
attr network FatTree_4_seed3_jitter
attr processid 21839
attr repetition 0
attr replication #0
attr resultdir results
attr runnumber 0
attr seedset 0
param **.ppp[*].ppp.queue.typename "\"DropTailQueue\""
param **.ppp[*].ppp.queue.packetCapacity 100
param *.configurator.config "xmldoc(\"FatTree_4_seed3_jitter.xml\")"
param **.sink_000.numApps 1
param **.sink_000.app[0].typename "\"TcpGenericServerApp\""
param **.sink_000.app[0].localAddress "\"\""
param **.sink_000.app[0].localPort 1100
param **.sink_000.app[0].replyDelay 0s
param **.sink_001.numApps 1
param **.sink_001.app[0].typename "\"TcpGenericServerApp\""
param **.sink_001.app[0].localAddress "\"\""
param **.sink_001.app[0].localPort 1100
param **.sink_001.app[0].replyDelay 0s
param **.sink_002.numApps 1
param **.sink_002.app[0].typename "\"TcpGenericServerApp\""
param **.sink_002.app[0].localAddress "\"\""
param **.sink_002.app[0].localPort 1100
param **.sink_002.app[0].replyDelay 0s
param **.sink_003.numApps 1
param **.sink_003.app[0].typename "\"TcpGenericServerApp\""
param **.sink_003.app[0].localAddress "\"\""
param **.sink_003.app[0].localPort 1100
param **.sink_003.app[0].replyDelay 0s
param **.sink_004.numApps 1
param **.sink_004.app[0].typename "\"TcpGenericServerApp\""
param **.sink_004.app[0].localAddress "\"\""
param **.sink_004.app[0].localPort 1100
param **.sink_004.app[0].replyDelay 0s
param **.sink_005.numApps 1
param **.sink_005.app[0].typename "\"TcpGenericServerApp\""
param **.sink_005.app[0].localAddress "\"\""
param **.sink_005.app[0].localPort 1100
param **.sink_005.app[0].replyDelay 0s
param **.sink_006.numApps 1
param **.sink_006.app[0].typename "\"TcpGenericServerApp\""
param **.sink_006.app[0].localAddress "\"\""
param **.sink_006.app[0].localPort 1100
param **.sink_006.app[0].replyDelay 0s
param **.sink_007.numApps 1
param **.sink_007.app[0].typename "\"TcpGenericServerApp\""
param **.sink_007.app[0].localAddress "\"\""
param **.sink_007.app[0].localPort 1100
param **.sink_007.app[0].replyDelay 0s
param **.sink_008.numApps 1
param **.sink_008.app[0].typename "\"TcpGenericServerApp\""
param **.sink_008.app[0].localAddress "\"\""
param **.sink_008.app[0].localPort 1100
param **.sink_008.app[0].replyDelay 0s
param **.sink_009.numApps 1
param **.sink_009.app[0].typename "\"TcpGenericServerApp\""
param **.sink_009.app[0].localAddress "\"\""
param **.sink_009.app[0].localPort 1100
param **.sink_009.app[0].replyDelay 0s
param **.sink_010.numApps 1
param **.sink_010.app[0].typename "\"TcpGenericServerApp\""
param **.sink_010.app[0].localAddress "\"\""
param **.sink_010.app[0].localPort 1100
param **.sink_010.app[0].replyDelay 0s
param **.sink_011.numApps 1
param **.sink_011.app[0].typename "\"TcpGenericServerApp\""
param **.sink_011.app[0].localAddress "\"\""
param **.sink_011.app[0].localPort 1100
param **.sink_011.app[0].replyDelay 0s
param **.sink_012.numApps 1
param **.sink_012.app[0].typename "\"TcpGenericServerApp\""
param **.sink_012.app[0].localAddress "\"\""
param **.sink_012.app[0].localPort 1100
param **.sink_012.app[0].replyDelay 0s
param **.sink_013.numApps 1
param **.sink_013.app[0].typename "\"TcpGenericServerApp\""
param **.sink_013.app[0].localAddress "\"\""
param **.sink_013.app[0].localPort 1100
param **.sink_013.app[0].replyDelay 0s
param **.sink_014.numApps 1
param **.sink_014.app[0].typename "\"TcpGenericServerApp\""
param **.sink_014.app[0].localAddress "\"\""
param **.sink_014.app[0].localPort 1100
param **.sink_014.app[0].replyDelay 0s
param **.sink_015.numApps 1
param **.sink_015.app[0].typename "\"TcpGenericServerApp\""
param **.sink_015.app[0].localAddress "\"\""
param **.sink_015.app[0].localPort 1100
param **.sink_015.app[0].replyDelay 0s
param **.sink_016.numApps 1
param **.sink_016.app[0].typename "\"TcpGenericServerApp\""
param **.sink_016.app[0].localAddress "\"\""
param **.sink_016.app[0].localPort 1100
param **.sink_016.app[0].replyDelay 0s
param **.sink_017.numApps 1
param **.sink_017.app[0].typename "\"TcpGenericServerApp\""
param **.sink_017.app[0].localAddress "\"\""
param **.sink_017.app[0].localPort 1100
param **.sink_017.app[0].replyDelay 0s
param **.sink_018.numApps 1
param **.sink_018.app[0].typename "\"TcpGenericServerApp\""
param **.sink_018.app[0].localAddress "\"\""
param **.sink_018.app[0].localPort 1100
param **.sink_018.app[0].replyDelay 0s
param **.sink_019.numApps 1
param **.sink_019.app[0].typename "\"TcpGenericServerApp\""
param **.sink_019.app[0].localAddress "\"\""
param **.sink_019.app[0].localPort 1100
param **.sink_019.app[0].replyDelay 0s
param **.sink_020.numApps 1
param **.sink_020.app[0].typename "\"TcpGenericServerApp\""
param **.sink_020.app[0].localAddress "\"\""
param **.sink_020.app[0].localPort 1100
param **.sink_020.app[0].replyDelay 0s
param **.sink_021.numApps 1
param **.sink_021.app[0].typename "\"TcpGenericServerApp\""
param **.sink_021.app[0].localAddress "\"\""
param **.sink_021.app[0].localPort 1100
param **.sink_021.app[0].replyDelay 0s
param **.sink_022.numApps 1
param **.sink_022.app[0].typename "\"TcpGenericServerApp\""
param **.sink_022.app[0].localAddress "\"\""
param **.sink_022.app[0].localPort 1100
param **.sink_022.app[0].replyDelay 0s
param **.sink_023.numApps 1
param **.sink_023.app[0].typename "\"TcpGenericServerApp\""
param **.sink_023.app[0].localAddress "\"\""
param **.sink_023.app[0].localPort 1100
param **.sink_023.app[0].replyDelay 0s
param **.sink_024.numApps 1
param **.sink_024.app[0].typename "\"TcpGenericServerApp\""
param **.sink_024.app[0].localAddress "\"\""
param **.sink_024.app[0].localPort 1100
param **.sink_024.app[0].replyDelay 0s
param **.sink_025.numApps 1
param **.sink_025.app[0].typename "\"TcpGenericServerApp\""
param **.sink_025.app[0].localAddress "\"\""
param **.sink_025.app[0].localPort 1100
param **.sink_025.app[0].replyDelay 0s
param **.sink_026.numApps 1
param **.sink_026.app[0].typename "\"TcpGenericServerApp\""
param **.sink_026.app[0].localAddress "\"\""
param **.sink_026.app[0].localPort 1100
param **.sink_026.app[0].replyDelay 0s
param **.sink_027.numApps 1
param **.sink_027.app[0].typename "\"TcpGenericServerApp\""
param **.sink_027.app[0].localAddress "\"\""
param **.sink_027.app[0].localPort 1100
param **.sink_027.app[0].replyDelay 0s
param **.sink_028.numApps 1
param **.sink_028.app[0].typename "\"TcpGenericServerApp\""
param **.sink_028.app[0].localAddress "\"\""
param **.sink_028.app[0].localPort 1100
param **.sink_028.app[0].replyDelay 0s
param **.sink_029.numApps 1
param **.sink_029.app[0].typename "\"TcpGenericServerApp\""
param **.sink_029.app[0].localAddress "\"\""
param **.sink_029.app[0].localPort 1100
param **.sink_029.app[0].replyDelay 0s
param **.sink_030.numApps 1
param **.sink_030.app[0].typename "\"TcpGenericServerApp\""
param **.sink_030.app[0].localAddress "\"\""
param **.sink_030.app[0].localPort 1100
param **.sink_030.app[0].replyDelay 0s
param **.sink_031.numApps 1
param **.sink_031.app[0].typename "\"TcpGenericServerApp\""
param **.sink_031.app[0].localAddress "\"\""
param **.sink_031.app[0].localPort 1100
param **.sink_031.app[0].replyDelay 0s
param **.sink_032.numApps 1
param **.sink_032.app[0].typename "\"TcpGenericServerApp\""
param **.sink_032.app[0].localAddress "\"\""
param **.sink_032.app[0].localPort 1100
param **.sink_032.app[0].replyDelay 0s
param **.sink_033.numApps 1
param **.sink_033.app[0].typename "\"TcpGenericServerApp\""
param **.sink_033.app[0].localAddress "\"\""
param **.sink_033.app[0].localPort 1100
param **.sink_033.app[0].replyDelay 0s
param **.sink_034.numApps 1
param **.sink_034.app[0].typename "\"TcpGenericServerApp\""
param **.sink_034.app[0].localAddress "\"\""
param **.sink_034.app[0].localPort 1100
param **.sink_034.app[0].replyDelay 0s
param **.sink_035.numApps 1
param **.sink_035.app[0].typename "\"TcpGenericServerApp\""
param **.sink_035.app[0].localAddress "\"\""
param **.sink_035.app[0].localPort 1100
param **.sink_035.app[0].replyDelay 0s
param **.sink_036.numApps 1
param **.sink_036.app[0].typename "\"TcpGenericServerApp\""
param **.sink_036.app[0].localAddress "\"\""
param **.sink_036.app[0].localPort 1100
param **.sink_036.app[0].replyDelay 0s
param **.sink_037.numApps 1
param **.sink_037.app[0].typename "\"TcpGenericServerApp\""
param **.sink_037.app[0].localAddress "\"\""
param **.sink_037.app[0].localPort 1100
param **.sink_037.app[0].replyDelay 0s
param **.sink_038.numApps 1
param **.sink_038.app[0].typename "\"TcpGenericServerApp\""
param **.sink_038.app[0].localAddress "\"\""
param **.sink_038.app[0].localPort 1100
param **.sink_038.app[0].replyDelay 0s
param **.sink_039.numApps 1
param **.sink_039.app[0].typename "\"TcpGenericServerApp\""
param **.sink_039.app[0].localAddress "\"\""
param **.sink_039.app[0].localPort 1100
param **.sink_039.app[0].replyDelay 0s
param **.sink_040.numApps 1
param **.sink_040.app[0].typename "\"TcpGenericServerApp\""
param **.sink_040.app[0].localAddress "\"\""
param **.sink_040.app[0].localPort 1100
param **.sink_040.app[0].replyDelay 0s
param **.sink_041.numApps 1
param **.sink_041.app[0].typename "\"TcpGenericServerApp\""
param **.sink_041.app[0].localAddress "\"\""
param **.sink_041.app[0].localPort 1100
param **.sink_041.app[0].replyDelay 0s
param **.sink_042.numApps 1
param **.sink_042.app[0].typename "\"TcpGenericServerApp\""
param **.sink_042.app[0].localAddress "\"\""
param **.sink_042.app[0].localPort 1100
param **.sink_042.app[0].replyDelay 0s
param **.sink_043.numApps 1
param **.sink_043.app[0].typename "\"TcpGenericServerApp\""
param **.sink_043.app[0].localAddress "\"\""
param **.sink_043.app[0].localPort 1100
param **.sink_043.app[0].replyDelay 0s
param **.sink_044.numApps 1
param **.sink_044.app[0].typename "\"TcpGenericServerApp\""
param **.sink_044.app[0].localAddress "\"\""
param **.sink_044.app[0].localPort 1100
param **.sink_044.app[0].replyDelay 0s
param **.sink_045.numApps 1
param **.sink_045.app[0].typename "\"TcpGenericServerApp\""
param **.sink_045.app[0].localAddress "\"\""
param **.sink_045.app[0].localPort 1100
param **.sink_045.app[0].replyDelay 0s
param **.sink_046.numApps 1
param **.sink_046.app[0].typename "\"TcpGenericServerApp\""
param **.sink_046.app[0].localAddress "\"\""
param **.sink_046.app[0].localPort 1100
param **.sink_046.app[0].replyDelay 0s
param **.sink_047.numApps 1
param **.sink_047.app[0].typename "\"TcpGenericServerApp\""
param **.sink_047.app[0].localAddress "\"\""
param **.sink_047.app[0].localPort 1100
param **.sink_047.app[0].replyDelay 0s
param **.sink_048.numApps 1
param **.sink_048.app[0].typename "\"TcpGenericServerApp\""
param **.sink_048.app[0].localAddress "\"\""
param **.sink_048.app[0].localPort 1100
param **.sink_048.app[0].replyDelay 0s
param **.sink_049.numApps 1
param **.sink_049.app[0].typename "\"TcpGenericServerApp\""
param **.sink_049.app[0].localAddress "\"\""
param **.sink_049.app[0].localPort 1100
param **.sink_049.app[0].replyDelay 0s
param **.sink_050.numApps 1
param **.sink_050.app[0].typename "\"TcpGenericServerApp\""
param **.sink_050.app[0].localAddress "\"\""
param **.sink_050.app[0].localPort 1100
param **.sink_050.app[0].replyDelay 0s
param **.sink_051.numApps 1
param **.sink_051.app[0].typename "\"TcpGenericServerApp\""
param **.sink_051.app[0].localAddress "\"\""
param **.sink_051.app[0].localPort 1100
param **.sink_051.app[0].replyDelay 0s
param **.sink_052.numApps 1
param **.sink_052.app[0].typename "\"TcpGenericServerApp\""
param **.sink_052.app[0].localAddress "\"\""
param **.sink_052.app[0].localPort 1100
param **.sink_052.app[0].replyDelay 0s
param **.sink_053.numApps 1
param **.sink_053.app[0].typename "\"TcpGenericServerApp\""
param **.sink_053.app[0].localAddress "\"\""
param **.sink_053.app[0].localPort 1100
param **.sink_053.app[0].replyDelay 0s
param **.sink_054.numApps 1
param **.sink_054.app[0].typename "\"TcpGenericServerApp\""
param **.sink_054.app[0].localAddress "\"\""
param **.sink_054.app[0].localPort 1100
param **.sink_054.app[0].replyDelay 0s
param **.sink_055.numApps 1
param **.sink_055.app[0].typename "\"TcpGenericServerApp\""
param **.sink_055.app[0].localAddress "\"\""
param **.sink_055.app[0].localPort 1100
param **.sink_055.app[0].replyDelay 0s
param **.sink_056.numApps 1
param **.sink_056.app[0].typename "\"TcpGenericServerApp\""
param **.sink_056.app[0].localAddress "\"\""
param **.sink_056.app[0].localPort 1100
param **.sink_056.app[0].replyDelay 0s
param **.sink_057.numApps 1
param **.sink_057.app[0].typename "\"TcpGenericServerApp\""
param **.sink_057.app[0].localAddress "\"\""
param **.sink_057.app[0].localPort 1100
param **.sink_057.app[0].replyDelay 0s
param **.sink_058.numApps 1
param **.sink_058.app[0].typename "\"TcpGenericServerApp\""
param **.sink_058.app[0].localAddress "\"\""
param **.sink_058.app[0].localPort 1100
param **.sink_058.app[0].replyDelay 0s
param **.sink_059.numApps 1
param **.sink_059.app[0].typename "\"TcpGenericServerApp\""
param **.sink_059.app[0].localAddress "\"\""
param **.sink_059.app[0].localPort 1100
param **.sink_059.app[0].replyDelay 0s
param **.sink_060.numApps 1
param **.sink_060.app[0].typename "\"TcpGenericServerApp\""
param **.sink_060.app[0].localAddress "\"\""
param **.sink_060.app[0].localPort 1100
param **.sink_060.app[0].replyDelay 0s
param **.sink_061.numApps 1
param **.sink_061.app[0].typename "\"TcpGenericServerApp\""
param **.sink_061.app[0].localAddress "\"\""
param **.sink_061.app[0].localPort 1100
param **.sink_061.app[0].replyDelay 0s
param **.sink_062.numApps 1
param **.sink_062.app[0].typename "\"TcpGenericServerApp\""
param **.sink_062.app[0].localAddress "\"\""
param **.sink_062.app[0].localPort 1100
param **.sink_062.app[0].replyDelay 0s
param **.sink_063.numApps 1
param **.sink_063.app[0].typename "\"TcpGenericServerApp\""
param **.sink_063.app[0].localAddress "\"\""
param **.sink_063.app[0].localPort 1100
param **.sink_063.app[0].replyDelay 0s
param **.sink_064.numApps 1
param **.sink_064.app[0].typename "\"TcpGenericServerApp\""
param **.sink_064.app[0].localAddress "\"\""
param **.sink_064.app[0].localPort 1100
param **.sink_064.app[0].replyDelay 0s
param **.sink_065.numApps 1
param **.sink_065.app[0].typename "\"TcpGenericServerApp\""
param **.sink_065.app[0].localAddress "\"\""
param **.sink_065.app[0].localPort 1100
param **.sink_065.app[0].replyDelay 0s
param **.sink_066.numApps 1
param **.sink_066.app[0].typename "\"TcpGenericServerApp\""
param **.sink_066.app[0].localAddress "\"\""
param **.sink_066.app[0].localPort 1100
param **.sink_066.app[0].replyDelay 0s
param **.sink_067.numApps 1
param **.sink_067.app[0].typename "\"TcpGenericServerApp\""
param **.sink_067.app[0].localAddress "\"\""
param **.sink_067.app[0].localPort 1100
param **.sink_067.app[0].replyDelay 0s
param **.sink_068.numApps 1
param **.sink_068.app[0].typename "\"TcpGenericServerApp\""
param **.sink_068.app[0].localAddress "\"\""
param **.sink_068.app[0].localPort 1100
param **.sink_068.app[0].replyDelay 0s
param **.sink_069.numApps 1
param **.sink_069.app[0].typename "\"TcpGenericServerApp\""
param **.sink_069.app[0].localAddress "\"\""
param **.sink_069.app[0].localPort 1100
param **.sink_069.app[0].replyDelay 0s
param **.sink_070.numApps 1
param **.sink_070.app[0].typename "\"TcpGenericServerApp\""
param **.sink_070.app[0].localAddress "\"\""
param **.sink_070.app[0].localPort 1100
param **.sink_070.app[0].replyDelay 0s
param **.sink_071.numApps 1
param **.sink_071.app[0].typename "\"TcpGenericServerApp\""
param **.sink_071.app[0].localAddress "\"\""
param **.sink_071.app[0].localPort 1100
param **.sink_071.app[0].replyDelay 0s
param **.sink_072.numApps 1
param **.sink_072.app[0].typename "\"TcpGenericServerApp\""
param **.sink_072.app[0].localAddress "\"\""
param **.sink_072.app[0].localPort 1100
param **.sink_072.app[0].replyDelay 0s
param **.sink_073.numApps 1
param **.sink_073.app[0].typename "\"TcpGenericServerApp\""
param **.sink_073.app[0].localAddress "\"\""
param **.sink_073.app[0].localPort 1100
param **.sink_073.app[0].replyDelay 0s
param **.sink_074.numApps 1
param **.sink_074.app[0].typename "\"TcpGenericServerApp\""
param **.sink_074.app[0].localAddress "\"\""
param **.sink_074.app[0].localPort 1100
param **.sink_074.app[0].replyDelay 0s
param **.sink_075.numApps 1
param **.sink_075.app[0].typename "\"TcpGenericServerApp\""
param **.sink_075.app[0].localAddress "\"\""
param **.sink_075.app[0].localPort 1100
param **.sink_075.app[0].replyDelay 0s
param **.sink_076.numApps 1
param **.sink_076.app[0].typename "\"TcpGenericServerApp\""
param **.sink_076.app[0].localAddress "\"\""
param **.sink_076.app[0].localPort 1100
param **.sink_076.app[0].replyDelay 0s
param **.sink_077.numApps 1
param **.sink_077.app[0].typename "\"TcpGenericServerApp\""
param **.sink_077.app[0].localAddress "\"\""
param **.sink_077.app[0].localPort 1100
param **.sink_077.app[0].replyDelay 0s
param **.sink_078.numApps 1
param **.sink_078.app[0].typename "\"TcpGenericServerApp\""
param **.sink_078.app[0].localAddress "\"\""
param **.sink_078.app[0].localPort 1100
param **.sink_078.app[0].replyDelay 0s
param **.sink_079.numApps 1
param **.sink_079.app[0].typename "\"TcpGenericServerApp\""
param **.sink_079.app[0].localAddress "\"\""
param **.sink_079.app[0].localPort 1100
param **.sink_079.app[0].replyDelay 0s
param **.source_000.numApps 1
param **.source_000.app[0].typename "\"TcpBasicClientApp\""
param **.source_000.app[0].localAddress "\"\""
param **.source_000.app[0].connectAddress "\"sink_000\""
param **.source_000.app[0].connectPort 1100
param **.source_000.app[0].startTime 0s
param **.source_000.app[0].idleInterval 1000s
param **.source_000.app[0].requestLength 1300B
param **.source_000.app[0].replyLength 20B
param **.source_000.app[0].thinkTime 0s
param **.source_000.app[0].numRequestsPerSession 77
param **.source_001.numApps 1
param **.source_001.app[0].typename "\"TcpBasicClientApp\""
param **.source_001.app[0].localAddress "\"\""
param **.source_001.app[0].connectAddress "\"sink_001\""
param **.source_001.app[0].connectPort 1100
param **.source_001.app[0].startTime 0s
param **.source_001.app[0].idleInterval 1000s
param **.source_001.app[0].requestLength 1300B
param **.source_001.app[0].replyLength 20B
param **.source_001.app[0].thinkTime 0s
param **.source_001.app[0].numRequestsPerSession 77
param **.source_002.numApps 1
param **.source_002.app[0].typename "\"TcpBasicClientApp\""
param **.source_002.app[0].localAddress "\"\""
param **.source_002.app[0].connectAddress "\"sink_002\""
param **.source_002.app[0].connectPort 1100
param **.source_002.app[0].startTime 0s
param **.source_002.app[0].idleInterval 1000s
param **.source_002.app[0].requestLength 1300B
param **.source_002.app[0].replyLength 20B
param **.source_002.app[0].thinkTime 0s
param **.source_002.app[0].numRequestsPerSession 77
param **.source_003.numApps 1
param **.source_003.app[0].typename "\"TcpBasicClientApp\""
param **.source_003.app[0].localAddress "\"\""
param **.source_003.app[0].connectAddress "\"sink_003\""
param **.source_003.app[0].connectPort 1100
param **.source_003.app[0].startTime 0s
param **.source_003.app[0].idleInterval 1000s
param **.source_003.app[0].requestLength 1300B
param **.source_003.app[0].replyLength 20B
param **.source_003.app[0].thinkTime 0s
param **.source_003.app[0].numRequestsPerSession 77
param **.source_004.numApps 1
param **.source_004.app[0].typename "\"TcpBasicClientApp\""
param **.source_004.app[0].localAddress "\"\""
param **.source_004.app[0].connectAddress "\"sink_004\""
param **.source_004.app[0].connectPort 1100
param **.source_004.app[0].startTime 0s
param **.source_004.app[0].idleInterval 1000s
param **.source_004.app[0].requestLength 1300B
param **.source_004.app[0].replyLength 20B
param **.source_004.app[0].thinkTime 0s
param **.source_004.app[0].numRequestsPerSession 77
param **.source_005.numApps 1
param **.source_005.app[0].typename "\"TcpBasicClientApp\""
param **.source_005.app[0].localAddress "\"\""
param **.source_005.app[0].connectAddress "\"sink_005\""
param **.source_005.app[0].connectPort 1100
param **.source_005.app[0].startTime 0s
param **.source_005.app[0].idleInterval 1000s
param **.source_005.app[0].requestLength 1300B
param **.source_005.app[0].replyLength 20B
param **.source_005.app[0].thinkTime 0s
param **.source_005.app[0].numRequestsPerSession 77
param **.source_006.numApps 1
param **.source_006.app[0].typename "\"TcpBasicClientApp\""
param **.source_006.app[0].localAddress "\"\""
param **.source_006.app[0].connectAddress "\"sink_006\""
param **.source_006.app[0].connectPort 1100
param **.source_006.app[0].startTime 0s
param **.source_006.app[0].idleInterval 1000s
param **.source_006.app[0].requestLength 1300B
param **.source_006.app[0].replyLength 20B
param **.source_006.app[0].thinkTime 0s
param **.source_006.app[0].numRequestsPerSession 77
param **.source_007.numApps 1
param **.source_007.app[0].typename "\"TcpBasicClientApp\""
param **.source_007.app[0].localAddress "\"\""
param **.source_007.app[0].connectAddress "\"sink_007\""
param **.source_007.app[0].connectPort 1100
param **.source_007.app[0].startTime 0s
param **.source_007.app[0].idleInterval 1000s
param **.source_007.app[0].requestLength 1300B
param **.source_007.app[0].replyLength 20B
param **.source_007.app[0].thinkTime 0s
param **.source_007.app[0].numRequestsPerSession 77
param **.source_008.numApps 1
param **.source_008.app[0].typename "\"TcpBasicClientApp\""
param **.source_008.app[0].localAddress "\"\""
param **.source_008.app[0].connectAddress "\"sink_008\""
param **.source_008.app[0].connectPort 1100
param **.source_008.app[0].startTime 0s
param **.source_008.app[0].idleInterval 1000s
param **.source_008.app[0].requestLength 1300B
param **.source_008.app[0].replyLength 20B
param **.source_008.app[0].thinkTime 0s
param **.source_008.app[0].numRequestsPerSession 77
param **.source_009.numApps 1
param **.source_009.app[0].typename "\"TcpBasicClientApp\""
param **.source_009.app[0].localAddress "\"\""
param **.source_009.app[0].connectAddress "\"sink_009\""
param **.source_009.app[0].connectPort 1100
param **.source_009.app[0].startTime 0s
param **.source_009.app[0].idleInterval 1000s
param **.source_009.app[0].requestLength 1300B
param **.source_009.app[0].replyLength 20B
param **.source_009.app[0].thinkTime 0s
param **.source_009.app[0].numRequestsPerSession 77
param **.source_010.numApps 1
param **.source_010.app[0].typename "\"TcpBasicClientApp\""
param **.source_010.app[0].localAddress "\"\""
param **.source_010.app[0].connectAddress "\"sink_010\""
param **.source_010.app[0].connectPort 1100
param **.source_010.app[0].startTime 0s
param **.source_010.app[0].idleInterval 1000s
param **.source_010.app[0].requestLength 1300B
param **.source_010.app[0].replyLength 20B
param **.source_010.app[0].thinkTime 0s
param **.source_010.app[0].numRequestsPerSession 77
param **.source_011.numApps 1
param **.source_011.app[0].typename "\"TcpBasicClientApp\""
param **.source_011.app[0].localAddress "\"\""
param **.source_011.app[0].connectAddress "\"sink_011\""
param **.source_011.app[0].connectPort 1100
param **.source_011.app[0].startTime 0s
param **.source_011.app[0].idleInterval 1000s
param **.source_011.app[0].requestLength 1300B
param **.source_011.app[0].replyLength 20B
param **.source_011.app[0].thinkTime 0s
param **.source_011.app[0].numRequestsPerSession 77
param **.source_012.numApps 1
param **.source_012.app[0].typename "\"TcpBasicClientApp\""
param **.source_012.app[0].localAddress "\"\""
param **.source_012.app[0].connectAddress "\"sink_012\""
param **.source_012.app[0].connectPort 1100
param **.source_012.app[0].startTime 0s
param **.source_012.app[0].idleInterval 1000s
param **.source_012.app[0].requestLength 1300B
param **.source_012.app[0].replyLength 20B
param **.source_012.app[0].thinkTime 0s
param **.source_012.app[0].numRequestsPerSession 77
param **.source_013.numApps 1
param **.source_013.app[0].typename "\"TcpBasicClientApp\""
param **.source_013.app[0].localAddress "\"\""
param **.source_013.app[0].connectAddress "\"sink_013\""
param **.source_013.app[0].connectPort 1100
param **.source_013.app[0].startTime 0s
param **.source_013.app[0].idleInterval 1000s
param **.source_013.app[0].requestLength 1300B
param **.source_013.app[0].replyLength 20B
param **.source_013.app[0].thinkTime 0s
param **.source_013.app[0].numRequestsPerSession 77
param **.source_014.numApps 1
param **.source_014.app[0].typename "\"TcpBasicClientApp\""
param **.source_014.app[0].localAddress "\"\""
param **.source_014.app[0].connectAddress "\"sink_014\""
param **.source_014.app[0].connectPort 1100
param **.source_014.app[0].startTime 0s
param **.source_014.app[0].idleInterval 1000s
param **.source_014.app[0].requestLength 1300B
param **.source_014.app[0].replyLength 20B
param **.source_014.app[0].thinkTime 0s
param **.source_014.app[0].numRequestsPerSession 77
param **.source_015.numApps 1
param **.source_015.app[0].typename "\"TcpBasicClientApp\""
param **.source_015.app[0].localAddress "\"\""
param **.source_015.app[0].connectAddress "\"sink_015\""
param **.source_015.app[0].connectPort 1100
param **.source_015.app[0].startTime 0s
param **.source_015.app[0].idleInterval 1000s
param **.source_015.app[0].requestLength 1300B
param **.source_015.app[0].replyLength 20B
param **.source_015.app[0].thinkTime 0s
param **.source_015.app[0].numRequestsPerSession 77
param **.source_016.numApps 1
param **.source_016.app[0].typename "\"TcpBasicClientApp\""
param **.source_016.app[0].localAddress "\"\""
param **.source_016.app[0].connectAddress "\"sink_016\""
param **.source_016.app[0].connectPort 1100
param **.source_016.app[0].startTime 0s
param **.source_016.app[0].idleInterval 1000s
param **.source_016.app[0].requestLength 1300B
param **.source_016.app[0].replyLength 20B
param **.source_016.app[0].thinkTime 0s
param **.source_016.app[0].numRequestsPerSession 77
param **.source_017.numApps 1
param **.source_017.app[0].typename "\"TcpBasicClientApp\""
param **.source_017.app[0].localAddress "\"\""
param **.source_017.app[0].connectAddress "\"sink_017\""
param **.source_017.app[0].connectPort 1100
param **.source_017.app[0].startTime 0s
param **.source_017.app[0].idleInterval 1000s
param **.source_017.app[0].requestLength 1300B
param **.source_017.app[0].replyLength 20B
param **.source_017.app[0].thinkTime 0s
param **.source_017.app[0].numRequestsPerSession 77
param **.source_018.numApps 1
param **.source_018.app[0].typename "\"TcpBasicClientApp\""
param **.source_018.app[0].localAddress "\"\""
param **.source_018.app[0].connectAddress "\"sink_018\""
param **.source_018.app[0].connectPort 1100
param **.source_018.app[0].startTime 0s
param **.source_018.app[0].idleInterval 1000s
param **.source_018.app[0].requestLength 1300B
param **.source_018.app[0].replyLength 20B
param **.source_018.app[0].thinkTime 0s
param **.source_018.app[0].numRequestsPerSession 77
param **.source_019.numApps 1
param **.source_019.app[0].typename "\"TcpBasicClientApp\""
param **.source_019.app[0].localAddress "\"\""
param **.source_019.app[0].connectAddress "\"sink_019\""
param **.source_019.app[0].connectPort 1100
param **.source_019.app[0].startTime 0s
param **.source_019.app[0].idleInterval 1000s
param **.source_019.app[0].requestLength 1300B
param **.source_019.app[0].replyLength 20B
param **.source_019.app[0].thinkTime 0s
param **.source_019.app[0].numRequestsPerSession 77
param **.source_020.numApps 1
param **.source_020.app[0].typename "\"TcpBasicClientApp\""
param **.source_020.app[0].localAddress "\"\""
param **.source_020.app[0].connectAddress "\"sink_020\""
param **.source_020.app[0].connectPort 1100
param **.source_020.app[0].startTime 0s
param **.source_020.app[0].idleInterval 1000s
param **.source_020.app[0].requestLength 1300B
param **.source_020.app[0].replyLength 20B
param **.source_020.app[0].thinkTime 0s
param **.source_020.app[0].numRequestsPerSession 77
param **.source_021.numApps 1
param **.source_021.app[0].typename "\"TcpBasicClientApp\""
param **.source_021.app[0].localAddress "\"\""
param **.source_021.app[0].connectAddress "\"sink_021\""
param **.source_021.app[0].connectPort 1100
param **.source_021.app[0].startTime 0s
param **.source_021.app[0].idleInterval 1000s
param **.source_021.app[0].requestLength 1300B
param **.source_021.app[0].replyLength 20B
param **.source_021.app[0].thinkTime 0s
param **.source_021.app[0].numRequestsPerSession 77
param **.source_022.numApps 1
param **.source_022.app[0].typename "\"TcpBasicClientApp\""
param **.source_022.app[0].localAddress "\"\""
param **.source_022.app[0].connectAddress "\"sink_022\""
param **.source_022.app[0].connectPort 1100
param **.source_022.app[0].startTime 0s
param **.source_022.app[0].idleInterval 1000s
param **.source_022.app[0].requestLength 1300B
param **.source_022.app[0].replyLength 20B
param **.source_022.app[0].thinkTime 0s
param **.source_022.app[0].numRequestsPerSession 77
param **.source_023.numApps 1
param **.source_023.app[0].typename "\"TcpBasicClientApp\""
param **.source_023.app[0].localAddress "\"\""
param **.source_023.app[0].connectAddress "\"sink_023\""
param **.source_023.app[0].connectPort 1100
param **.source_023.app[0].startTime 0s
param **.source_023.app[0].idleInterval 1000s
param **.source_023.app[0].requestLength 1300B
param **.source_023.app[0].replyLength 20B
param **.source_023.app[0].thinkTime 0s
param **.source_023.app[0].numRequestsPerSession 77
param **.source_024.numApps 1
param **.source_024.app[0].typename "\"TcpBasicClientApp\""
param **.source_024.app[0].localAddress "\"\""
param **.source_024.app[0].connectAddress "\"sink_024\""
param **.source_024.app[0].connectPort 1100
param **.source_024.app[0].startTime 0s
param **.source_024.app[0].idleInterval 1000s
param **.source_024.app[0].requestLength 1300B
param **.source_024.app[0].replyLength 20B
param **.source_024.app[0].thinkTime 0s
param **.source_024.app[0].numRequestsPerSession 77
param **.source_025.numApps 1
param **.source_025.app[0].typename "\"TcpBasicClientApp\""
param **.source_025.app[0].localAddress "\"\""
param **.source_025.app[0].connectAddress "\"sink_025\""
param **.source_025.app[0].connectPort 1100
param **.source_025.app[0].startTime 0s
param **.source_025.app[0].idleInterval 1000s
param **.source_025.app[0].requestLength 1300B
param **.source_025.app[0].replyLength 20B
param **.source_025.app[0].thinkTime 0s
param **.source_025.app[0].numRequestsPerSession 77
param **.source_026.numApps 1
param **.source_026.app[0].typename "\"TcpBasicClientApp\""
param **.source_026.app[0].localAddress "\"\""
param **.source_026.app[0].connectAddress "\"sink_026\""
param **.source_026.app[0].connectPort 1100
param **.source_026.app[0].startTime 0s
param **.source_026.app[0].idleInterval 1000s
param **.source_026.app[0].requestLength 1300B
param **.source_026.app[0].replyLength 20B
param **.source_026.app[0].thinkTime 0s
param **.source_026.app[0].numRequestsPerSession 77
param **.source_027.numApps 1
param **.source_027.app[0].typename "\"TcpBasicClientApp\""
param **.source_027.app[0].localAddress "\"\""
param **.source_027.app[0].connectAddress "\"sink_027\""
param **.source_027.app[0].connectPort 1100
param **.source_027.app[0].startTime 0s
param **.source_027.app[0].idleInterval 1000s
param **.source_027.app[0].requestLength 1300B
param **.source_027.app[0].replyLength 20B
param **.source_027.app[0].thinkTime 0s
param **.source_027.app[0].numRequestsPerSession 77
param **.source_028.numApps 1
param **.source_028.app[0].typename "\"TcpBasicClientApp\""
param **.source_028.app[0].localAddress "\"\""
param **.source_028.app[0].connectAddress "\"sink_028\""
param **.source_028.app[0].connectPort 1100
param **.source_028.app[0].startTime 0s
param **.source_028.app[0].idleInterval 1000s
param **.source_028.app[0].requestLength 1300B
param **.source_028.app[0].replyLength 20B
param **.source_028.app[0].thinkTime 0s
param **.source_028.app[0].numRequestsPerSession 77
param **.source_029.numApps 1
param **.source_029.app[0].typename "\"TcpBasicClientApp\""
param **.source_029.app[0].localAddress "\"\""
param **.source_029.app[0].connectAddress "\"sink_029\""
param **.source_029.app[0].connectPort 1100
param **.source_029.app[0].startTime 0s
param **.source_029.app[0].idleInterval 1000s
param **.source_029.app[0].requestLength 1300B
param **.source_029.app[0].replyLength 20B
param **.source_029.app[0].thinkTime 0s
param **.source_029.app[0].numRequestsPerSession 77
param **.source_030.numApps 1
param **.source_030.app[0].typename "\"TcpBasicClientApp\""
param **.source_030.app[0].localAddress "\"\""
param **.source_030.app[0].connectAddress "\"sink_030\""
param **.source_030.app[0].connectPort 1100
param **.source_030.app[0].startTime 0s
param **.source_030.app[0].idleInterval 1000s
param **.source_030.app[0].requestLength 1300B
param **.source_030.app[0].replyLength 20B
param **.source_030.app[0].thinkTime 0s
param **.source_030.app[0].numRequestsPerSession 77
param **.source_031.numApps 1
param **.source_031.app[0].typename "\"TcpBasicClientApp\""
param **.source_031.app[0].localAddress "\"\""
param **.source_031.app[0].connectAddress "\"sink_031\""
param **.source_031.app[0].connectPort 1100
param **.source_031.app[0].startTime 0s
param **.source_031.app[0].idleInterval 1000s
param **.source_031.app[0].requestLength 1300B
param **.source_031.app[0].replyLength 20B
param **.source_031.app[0].thinkTime 0s
param **.source_031.app[0].numRequestsPerSession 77
param **.source_032.numApps 1
param **.source_032.app[0].typename "\"TcpBasicClientApp\""
param **.source_032.app[0].localAddress "\"\""
param **.source_032.app[0].connectAddress "\"sink_032\""
param **.source_032.app[0].connectPort 1100
param **.source_032.app[0].startTime 0s
param **.source_032.app[0].idleInterval 1000s
param **.source_032.app[0].requestLength 1300B
param **.source_032.app[0].replyLength 20B
param **.source_032.app[0].thinkTime 0s
param **.source_032.app[0].numRequestsPerSession 77
param **.source_033.numApps 1
param **.source_033.app[0].typename "\"TcpBasicClientApp\""
param **.source_033.app[0].localAddress "\"\""
param **.source_033.app[0].connectAddress "\"sink_033\""
param **.source_033.app[0].connectPort 1100
param **.source_033.app[0].startTime 0s
param **.source_033.app[0].idleInterval 1000s
param **.source_033.app[0].requestLength 1300B
param **.source_033.app[0].replyLength 20B
param **.source_033.app[0].thinkTime 0s
param **.source_033.app[0].numRequestsPerSession 77
param **.source_034.numApps 1
param **.source_034.app[0].typename "\"TcpBasicClientApp\""
param **.source_034.app[0].localAddress "\"\""
param **.source_034.app[0].connectAddress "\"sink_034\""
param **.source_034.app[0].connectPort 1100
param **.source_034.app[0].startTime 0s
param **.source_034.app[0].idleInterval 1000s
param **.source_034.app[0].requestLength 1300B
param **.source_034.app[0].replyLength 20B
param **.source_034.app[0].thinkTime 0s
param **.source_034.app[0].numRequestsPerSession 77
param **.source_035.numApps 1
param **.source_035.app[0].typename "\"TcpBasicClientApp\""
param **.source_035.app[0].localAddress "\"\""
param **.source_035.app[0].connectAddress "\"sink_035\""
param **.source_035.app[0].connectPort 1100
param **.source_035.app[0].startTime 0s
param **.source_035.app[0].idleInterval 1000s
param **.source_035.app[0].requestLength 1300B
param **.source_035.app[0].replyLength 20B
param **.source_035.app[0].thinkTime 0s
param **.source_035.app[0].numRequestsPerSession 77
param **.source_036.numApps 1
param **.source_036.app[0].typename "\"TcpBasicClientApp\""
param **.source_036.app[0].localAddress "\"\""
param **.source_036.app[0].connectAddress "\"sink_036\""
param **.source_036.app[0].connectPort 1100
param **.source_036.app[0].startTime 0s
param **.source_036.app[0].idleInterval 1000s
param **.source_036.app[0].requestLength 1300B
param **.source_036.app[0].replyLength 20B
param **.source_036.app[0].thinkTime 0s
param **.source_036.app[0].numRequestsPerSession 77
param **.source_037.numApps 1
param **.source_037.app[0].typename "\"TcpBasicClientApp\""
param **.source_037.app[0].localAddress "\"\""
param **.source_037.app[0].connectAddress "\"sink_037\""
param **.source_037.app[0].connectPort 1100
param **.source_037.app[0].startTime 0s
param **.source_037.app[0].idleInterval 1000s
param **.source_037.app[0].requestLength 1300B
param **.source_037.app[0].replyLength 20B
param **.source_037.app[0].thinkTime 0s
param **.source_037.app[0].numRequestsPerSession 77
param **.source_038.numApps 1
param **.source_038.app[0].typename "\"TcpBasicClientApp\""
param **.source_038.app[0].localAddress "\"\""
param **.source_038.app[0].connectAddress "\"sink_038\""
param **.source_038.app[0].connectPort 1100
param **.source_038.app[0].startTime 0s
param **.source_038.app[0].idleInterval 1000s
param **.source_038.app[0].requestLength 1300B
param **.source_038.app[0].replyLength 20B
param **.source_038.app[0].thinkTime 0s
param **.source_038.app[0].numRequestsPerSession 77
param **.source_039.numApps 1
param **.source_039.app[0].typename "\"TcpBasicClientApp\""
param **.source_039.app[0].localAddress "\"\""
param **.source_039.app[0].connectAddress "\"sink_039\""
param **.source_039.app[0].connectPort 1100
param **.source_039.app[0].startTime 0s
param **.source_039.app[0].idleInterval 1000s
param **.source_039.app[0].requestLength 1300B
param **.source_039.app[0].replyLength 20B
param **.source_039.app[0].thinkTime 0s
param **.source_039.app[0].numRequestsPerSession 77
param **.source_040.numApps 1
param **.source_040.app[0].typename "\"TcpBasicClientApp\""
param **.source_040.app[0].localAddress "\"\""
param **.source_040.app[0].connectAddress "\"sink_040\""
param **.source_040.app[0].connectPort 1100
param **.source_040.app[0].startTime 0s
param **.source_040.app[0].idleInterval 1000s
param **.source_040.app[0].requestLength 1300B
param **.source_040.app[0].replyLength 20B
param **.source_040.app[0].thinkTime 0s
param **.source_040.app[0].numRequestsPerSession 77
param **.source_041.numApps 1
param **.source_041.app[0].typename "\"TcpBasicClientApp\""
param **.source_041.app[0].localAddress "\"\""
param **.source_041.app[0].connectAddress "\"sink_041\""
param **.source_041.app[0].connectPort 1100
param **.source_041.app[0].startTime 0s
param **.source_041.app[0].idleInterval 1000s
param **.source_041.app[0].requestLength 1300B
param **.source_041.app[0].replyLength 20B
param **.source_041.app[0].thinkTime 0s
param **.source_041.app[0].numRequestsPerSession 77
param **.source_042.numApps 1
param **.source_042.app[0].typename "\"TcpBasicClientApp\""
param **.source_042.app[0].localAddress "\"\""
param **.source_042.app[0].connectAddress "\"sink_042\""
param **.source_042.app[0].connectPort 1100
param **.source_042.app[0].startTime 0s
param **.source_042.app[0].idleInterval 1000s
param **.source_042.app[0].requestLength 1300B
param **.source_042.app[0].replyLength 20B
param **.source_042.app[0].thinkTime 0s
param **.source_042.app[0].numRequestsPerSession 77
param **.source_043.numApps 1
param **.source_043.app[0].typename "\"TcpBasicClientApp\""
param **.source_043.app[0].localAddress "\"\""
param **.source_043.app[0].connectAddress "\"sink_043\""
param **.source_043.app[0].connectPort 1100
param **.source_043.app[0].startTime 0s
param **.source_043.app[0].idleInterval 1000s
param **.source_043.app[0].requestLength 1300B
param **.source_043.app[0].replyLength 20B
param **.source_043.app[0].thinkTime 0s
param **.source_043.app[0].numRequestsPerSession 77
param **.source_044.numApps 1
param **.source_044.app[0].typename "\"TcpBasicClientApp\""
param **.source_044.app[0].localAddress "\"\""
param **.source_044.app[0].connectAddress "\"sink_044\""
param **.source_044.app[0].connectPort 1100
param **.source_044.app[0].startTime 0s
param **.source_044.app[0].idleInterval 1000s
param **.source_044.app[0].requestLength 1300B
param **.source_044.app[0].replyLength 20B
param **.source_044.app[0].thinkTime 0s
param **.source_044.app[0].numRequestsPerSession 77
param **.source_045.numApps 1
param **.source_045.app[0].typename "\"TcpBasicClientApp\""
param **.source_045.app[0].localAddress "\"\""
param **.source_045.app[0].connectAddress "\"sink_045\""
param **.source_045.app[0].connectPort 1100
param **.source_045.app[0].startTime 0s
param **.source_045.app[0].idleInterval 1000s
param **.source_045.app[0].requestLength 1300B
param **.source_045.app[0].replyLength 20B
param **.source_045.app[0].thinkTime 0s
param **.source_045.app[0].numRequestsPerSession 77
param **.source_046.numApps 1
param **.source_046.app[0].typename "\"TcpBasicClientApp\""
param **.source_046.app[0].localAddress "\"\""
param **.source_046.app[0].connectAddress "\"sink_046\""
param **.source_046.app[0].connectPort 1100
param **.source_046.app[0].startTime 0s
param **.source_046.app[0].idleInterval 1000s
param **.source_046.app[0].requestLength 1300B
param **.source_046.app[0].replyLength 20B
param **.source_046.app[0].thinkTime 0s
param **.source_046.app[0].numRequestsPerSession 77
param **.source_047.numApps 1
param **.source_047.app[0].typename "\"TcpBasicClientApp\""
param **.source_047.app[0].localAddress "\"\""
param **.source_047.app[0].connectAddress "\"sink_047\""
param **.source_047.app[0].connectPort 1100
param **.source_047.app[0].startTime 0s
param **.source_047.app[0].idleInterval 1000s
param **.source_047.app[0].requestLength 1300B
param **.source_047.app[0].replyLength 20B
param **.source_047.app[0].thinkTime 0s
param **.source_047.app[0].numRequestsPerSession 77
param **.source_048.numApps 1
param **.source_048.app[0].typename "\"TcpBasicClientApp\""
param **.source_048.app[0].localAddress "\"\""
param **.source_048.app[0].connectAddress "\"sink_048\""
param **.source_048.app[0].connectPort 1100
param **.source_048.app[0].startTime 0s
param **.source_048.app[0].idleInterval 1000s
param **.source_048.app[0].requestLength 1300B
param **.source_048.app[0].replyLength 20B
param **.source_048.app[0].thinkTime 0s
param **.source_048.app[0].numRequestsPerSession 77
param **.source_049.numApps 1
param **.source_049.app[0].typename "\"TcpBasicClientApp\""
param **.source_049.app[0].localAddress "\"\""
param **.source_049.app[0].connectAddress "\"sink_049\""
param **.source_049.app[0].connectPort 1100
param **.source_049.app[0].startTime 0s
param **.source_049.app[0].idleInterval 1000s
param **.source_049.app[0].requestLength 1300B
param **.source_049.app[0].replyLength 20B
param **.source_049.app[0].thinkTime 0s
param **.source_049.app[0].numRequestsPerSession 77
param **.source_050.numApps 1
param **.source_050.app[0].typename "\"TcpBasicClientApp\""
param **.source_050.app[0].localAddress "\"\""
param **.source_050.app[0].connectAddress "\"sink_050\""
param **.source_050.app[0].connectPort 1100
param **.source_050.app[0].startTime 0s
param **.source_050.app[0].idleInterval 1000s
param **.source_050.app[0].requestLength 1300B
param **.source_050.app[0].replyLength 20B
param **.source_050.app[0].thinkTime 0s
param **.source_050.app[0].numRequestsPerSession 77
param **.source_051.numApps 1
param **.source_051.app[0].typename "\"TcpBasicClientApp\""
param **.source_051.app[0].localAddress "\"\""
param **.source_051.app[0].connectAddress "\"sink_051\""
param **.source_051.app[0].connectPort 1100
param **.source_051.app[0].startTime 0s
param **.source_051.app[0].idleInterval 1000s
param **.source_051.app[0].requestLength 1300B
param **.source_051.app[0].replyLength 20B
param **.source_051.app[0].thinkTime 0s
param **.source_051.app[0].numRequestsPerSession 77
param **.source_052.numApps 1
param **.source_052.app[0].typename "\"TcpBasicClientApp\""
param **.source_052.app[0].localAddress "\"\""
param **.source_052.app[0].connectAddress "\"sink_052\""
param **.source_052.app[0].connectPort 1100
param **.source_052.app[0].startTime 0s
param **.source_052.app[0].idleInterval 1000s
param **.source_052.app[0].requestLength 1300B
param **.source_052.app[0].replyLength 20B
param **.source_052.app[0].thinkTime 0s
param **.source_052.app[0].numRequestsPerSession 77
param **.source_053.numApps 1
param **.source_053.app[0].typename "\"TcpBasicClientApp\""
param **.source_053.app[0].localAddress "\"\""
param **.source_053.app[0].connectAddress "\"sink_053\""
param **.source_053.app[0].connectPort 1100
param **.source_053.app[0].startTime 0s
param **.source_053.app[0].idleInterval 1000s
param **.source_053.app[0].requestLength 1300B
param **.source_053.app[0].replyLength 20B
param **.source_053.app[0].thinkTime 0s
param **.source_053.app[0].numRequestsPerSession 77
param **.source_054.numApps 1
param **.source_054.app[0].typename "\"TcpBasicClientApp\""
param **.source_054.app[0].localAddress "\"\""
param **.source_054.app[0].connectAddress "\"sink_054\""
param **.source_054.app[0].connectPort 1100
param **.source_054.app[0].startTime 0s
param **.source_054.app[0].idleInterval 1000s
param **.source_054.app[0].requestLength 1300B
param **.source_054.app[0].replyLength 20B
param **.source_054.app[0].thinkTime 0s
param **.source_054.app[0].numRequestsPerSession 77
param **.source_055.numApps 1
param **.source_055.app[0].typename "\"TcpBasicClientApp\""
param **.source_055.app[0].localAddress "\"\""
param **.source_055.app[0].connectAddress "\"sink_055\""
param **.source_055.app[0].connectPort 1100
param **.source_055.app[0].startTime 0s
param **.source_055.app[0].idleInterval 1000s
param **.source_055.app[0].requestLength 1300B
param **.source_055.app[0].replyLength 20B
param **.source_055.app[0].thinkTime 0s
param **.source_055.app[0].numRequestsPerSession 77
param **.source_056.numApps 1
param **.source_056.app[0].typename "\"TcpBasicClientApp\""
param **.source_056.app[0].localAddress "\"\""
param **.source_056.app[0].connectAddress "\"sink_056\""
param **.source_056.app[0].connectPort 1100
param **.source_056.app[0].startTime 0s
param **.source_056.app[0].idleInterval 1000s
param **.source_056.app[0].requestLength 1300B
param **.source_056.app[0].replyLength 20B
param **.source_056.app[0].thinkTime 0s
param **.source_056.app[0].numRequestsPerSession 77
param **.source_057.numApps 1
param **.source_057.app[0].typename "\"TcpBasicClientApp\""
param **.source_057.app[0].localAddress "\"\""
param **.source_057.app[0].connectAddress "\"sink_057\""
param **.source_057.app[0].connectPort 1100
param **.source_057.app[0].startTime 0s
param **.source_057.app[0].idleInterval 1000s
param **.source_057.app[0].requestLength 1300B
param **.source_057.app[0].replyLength 20B
param **.source_057.app[0].thinkTime 0s
param **.source_057.app[0].numRequestsPerSession 77
param **.source_058.numApps 1
param **.source_058.app[0].typename "\"TcpBasicClientApp\""
param **.source_058.app[0].localAddress "\"\""
param **.source_058.app[0].connectAddress "\"sink_058\""
param **.source_058.app[0].connectPort 1100
param **.source_058.app[0].startTime 0s
param **.source_058.app[0].idleInterval 1000s
param **.source_058.app[0].requestLength 1300B
param **.source_058.app[0].replyLength 20B
param **.source_058.app[0].thinkTime 0s
param **.source_058.app[0].numRequestsPerSession 77
param **.source_059.numApps 1
param **.source_059.app[0].typename "\"TcpBasicClientApp\""
param **.source_059.app[0].localAddress "\"\""
param **.source_059.app[0].connectAddress "\"sink_059\""
param **.source_059.app[0].connectPort 1100
param **.source_059.app[0].startTime 0s
param **.source_059.app[0].idleInterval 1000s
param **.source_059.app[0].requestLength 1300B
param **.source_059.app[0].replyLength 20B
param **.source_059.app[0].thinkTime 0s
param **.source_059.app[0].numRequestsPerSession 77
param **.source_060.numApps 1
param **.source_060.app[0].typename "\"TcpBasicClientApp\""
param **.source_060.app[0].localAddress "\"\""
param **.source_060.app[0].connectAddress "\"sink_060\""
param **.source_060.app[0].connectPort 1100
param **.source_060.app[0].startTime 0s
param **.source_060.app[0].idleInterval 1000s
param **.source_060.app[0].requestLength 1300B
param **.source_060.app[0].replyLength 20B
param **.source_060.app[0].thinkTime 0s
param **.source_060.app[0].numRequestsPerSession 77
param **.source_061.numApps 1
param **.source_061.app[0].typename "\"TcpBasicClientApp\""
param **.source_061.app[0].localAddress "\"\""
param **.source_061.app[0].connectAddress "\"sink_061\""
param **.source_061.app[0].connectPort 1100
param **.source_061.app[0].startTime 0s
param **.source_061.app[0].idleInterval 1000s
param **.source_061.app[0].requestLength 1300B
param **.source_061.app[0].replyLength 20B
param **.source_061.app[0].thinkTime 0s
param **.source_061.app[0].numRequestsPerSession 77
param **.source_062.numApps 1
param **.source_062.app[0].typename "\"TcpBasicClientApp\""
param **.source_062.app[0].localAddress "\"\""
param **.source_062.app[0].connectAddress "\"sink_062\""
param **.source_062.app[0].connectPort 1100
param **.source_062.app[0].startTime 0s
param **.source_062.app[0].idleInterval 1000s
param **.source_062.app[0].requestLength 1300B
param **.source_062.app[0].replyLength 20B
param **.source_062.app[0].thinkTime 0s
param **.source_062.app[0].numRequestsPerSession 77
param **.source_063.numApps 1
param **.source_063.app[0].typename "\"TcpBasicClientApp\""
param **.source_063.app[0].localAddress "\"\""
param **.source_063.app[0].connectAddress "\"sink_063\""
param **.source_063.app[0].connectPort 1100
param **.source_063.app[0].startTime 0s
param **.source_063.app[0].idleInterval 1000s
param **.source_063.app[0].requestLength 1300B
param **.source_063.app[0].replyLength 20B
param **.source_063.app[0].thinkTime 0s
param **.source_063.app[0].numRequestsPerSession 77
param **.source_064.numApps 1
param **.source_064.app[0].typename "\"TcpBasicClientApp\""
param **.source_064.app[0].localAddress "\"\""
param **.source_064.app[0].connectAddress "\"sink_064\""
param **.source_064.app[0].connectPort 1100
param **.source_064.app[0].startTime 0s
param **.source_064.app[0].idleInterval 1000s
param **.source_064.app[0].requestLength 1300B
param **.source_064.app[0].replyLength 20B
param **.source_064.app[0].thinkTime 0s
param **.source_064.app[0].numRequestsPerSession 77
param **.source_065.numApps 1
param **.source_065.app[0].typename "\"TcpBasicClientApp\""
param **.source_065.app[0].localAddress "\"\""
param **.source_065.app[0].connectAddress "\"sink_065\""
param **.source_065.app[0].connectPort 1100
param **.source_065.app[0].startTime 0s
param **.source_065.app[0].idleInterval 1000s
param **.source_065.app[0].requestLength 1300B
param **.source_065.app[0].replyLength 20B
param **.source_065.app[0].thinkTime 0s
param **.source_065.app[0].numRequestsPerSession 77
param **.source_066.numApps 1
param **.source_066.app[0].typename "\"TcpBasicClientApp\""
param **.source_066.app[0].localAddress "\"\""
param **.source_066.app[0].connectAddress "\"sink_066\""
param **.source_066.app[0].connectPort 1100
param **.source_066.app[0].startTime 0s
param **.source_066.app[0].idleInterval 1000s
param **.source_066.app[0].requestLength 1300B
param **.source_066.app[0].replyLength 20B
param **.source_066.app[0].thinkTime 0s
param **.source_066.app[0].numRequestsPerSession 77
param **.source_067.numApps 1
param **.source_067.app[0].typename "\"TcpBasicClientApp\""
param **.source_067.app[0].localAddress "\"\""
param **.source_067.app[0].connectAddress "\"sink_067\""
param **.source_067.app[0].connectPort 1100
param **.source_067.app[0].startTime 0s
param **.source_067.app[0].idleInterval 1000s
param **.source_067.app[0].requestLength 1300B
param **.source_067.app[0].replyLength 20B
param **.source_067.app[0].thinkTime 0s
param **.source_067.app[0].numRequestsPerSession 77
param **.source_068.numApps 1
param **.source_068.app[0].typename "\"TcpBasicClientApp\""
param **.source_068.app[0].localAddress "\"\""
param **.source_068.app[0].connectAddress "\"sink_068\""
param **.source_068.app[0].connectPort 1100
param **.source_068.app[0].startTime 0s
param **.source_068.app[0].idleInterval 1000s
param **.source_068.app[0].requestLength 1300B
param **.source_068.app[0].replyLength 20B
param **.source_068.app[0].thinkTime 0s
param **.source_068.app[0].numRequestsPerSession 77
param **.source_069.numApps 1
param **.source_069.app[0].typename "\"TcpBasicClientApp\""
param **.source_069.app[0].localAddress "\"\""
param **.source_069.app[0].connectAddress "\"sink_069\""
param **.source_069.app[0].connectPort 1100
param **.source_069.app[0].startTime 0s
param **.source_069.app[0].idleInterval 1000s
param **.source_069.app[0].requestLength 1300B
param **.source_069.app[0].replyLength 20B
param **.source_069.app[0].thinkTime 0s
param **.source_069.app[0].numRequestsPerSession 77
param **.source_070.numApps 1
param **.source_070.app[0].typename "\"TcpBasicClientApp\""
param **.source_070.app[0].localAddress "\"\""
param **.source_070.app[0].connectAddress "\"sink_070\""
param **.source_070.app[0].connectPort 1100
param **.source_070.app[0].startTime 0s
param **.source_070.app[0].idleInterval 1000s
param **.source_070.app[0].requestLength 1300B
param **.source_070.app[0].replyLength 20B
param **.source_070.app[0].thinkTime 0s
param **.source_070.app[0].numRequestsPerSession 77
param **.source_071.numApps 1
param **.source_071.app[0].typename "\"TcpBasicClientApp\""
param **.source_071.app[0].localAddress "\"\""
param **.source_071.app[0].connectAddress "\"sink_071\""
param **.source_071.app[0].connectPort 1100
param **.source_071.app[0].startTime 0s
param **.source_071.app[0].idleInterval 1000s
param **.source_071.app[0].requestLength 1300B
param **.source_071.app[0].replyLength 20B
param **.source_071.app[0].thinkTime 0s
param **.source_071.app[0].numRequestsPerSession 77
param **.source_072.numApps 1
param **.source_072.app[0].typename "\"TcpBasicClientApp\""
param **.source_072.app[0].localAddress "\"\""
param **.source_072.app[0].connectAddress "\"sink_072\""
param **.source_072.app[0].connectPort 1100
param **.source_072.app[0].startTime 0s
param **.source_072.app[0].idleInterval 1000s
param **.source_072.app[0].requestLength 1300B
param **.source_072.app[0].replyLength 20B
param **.source_072.app[0].thinkTime 0s
param **.source_072.app[0].numRequestsPerSession 77
param **.source_073.numApps 1
param **.source_073.app[0].typename "\"TcpBasicClientApp\""
param **.source_073.app[0].localAddress "\"\""
param **.source_073.app[0].connectAddress "\"sink_073\""
param **.source_073.app[0].connectPort 1100
param **.source_073.app[0].startTime 0s
param **.source_073.app[0].idleInterval 1000s
param **.source_073.app[0].requestLength 1300B
param **.source_073.app[0].replyLength 20B
param **.source_073.app[0].thinkTime 0s
param **.source_073.app[0].numRequestsPerSession 77
param **.source_074.numApps 1
param **.source_074.app[0].typename "\"TcpBasicClientApp\""
param **.source_074.app[0].localAddress "\"\""
param **.source_074.app[0].connectAddress "\"sink_074\""
param **.source_074.app[0].connectPort 1100
param **.source_074.app[0].startTime 0s
param **.source_074.app[0].idleInterval 1000s
param **.source_074.app[0].requestLength 1300B
param **.source_074.app[0].replyLength 20B
param **.source_074.app[0].thinkTime 0s
param **.source_074.app[0].numRequestsPerSession 77
param **.source_075.numApps 1
param **.source_075.app[0].typename "\"TcpBasicClientApp\""
param **.source_075.app[0].localAddress "\"\""
param **.source_075.app[0].connectAddress "\"sink_075\""
param **.source_075.app[0].connectPort 1100
param **.source_075.app[0].startTime 0s
param **.source_075.app[0].idleInterval 1000s
param **.source_075.app[0].requestLength 1300B
param **.source_075.app[0].replyLength 20B
param **.source_075.app[0].thinkTime 0s
param **.source_075.app[0].numRequestsPerSession 77
param **.source_076.numApps 1
param **.source_076.app[0].typename "\"TcpBasicClientApp\""
param **.source_076.app[0].localAddress "\"\""
param **.source_076.app[0].connectAddress "\"sink_076\""
param **.source_076.app[0].connectPort 1100
param **.source_076.app[0].startTime 0s
param **.source_076.app[0].idleInterval 1000s
param **.source_076.app[0].requestLength 1300B
param **.source_076.app[0].replyLength 20B
param **.source_076.app[0].thinkTime 0s
param **.source_076.app[0].numRequestsPerSession 77
param **.source_077.numApps 1
param **.source_077.app[0].typename "\"TcpBasicClientApp\""
param **.source_077.app[0].localAddress "\"\""
param **.source_077.app[0].connectAddress "\"sink_077\""
param **.source_077.app[0].connectPort 1100
param **.source_077.app[0].startTime 0s
param **.source_077.app[0].idleInterval 1000s
param **.source_077.app[0].requestLength 1300B
param **.source_077.app[0].replyLength 20B
param **.source_077.app[0].thinkTime 0s
param **.source_077.app[0].numRequestsPerSession 77
param **.source_078.numApps 1
param **.source_078.app[0].typename "\"TcpBasicClientApp\""
param **.source_078.app[0].localAddress "\"\""
param **.source_078.app[0].connectAddress "\"sink_078\""
param **.source_078.app[0].connectPort 1100
param **.source_078.app[0].startTime 0s
param **.source_078.app[0].idleInterval 1000s
param **.source_078.app[0].requestLength 1300B
param **.source_078.app[0].replyLength 20B
param **.source_078.app[0].thinkTime 0s
param **.source_078.app[0].numRequestsPerSession 77
param **.source_079.numApps 1
param **.source_079.app[0].typename "\"TcpBasicClientApp\""
param **.source_079.app[0].localAddress "\"\""
param **.source_079.app[0].connectAddress "\"sink_079\""
param **.source_079.app[0].connectPort 1100
param **.source_079.app[0].startTime 0s
param **.source_079.app[0].idleInterval 1000s
param **.source_079.app[0].requestLength 1300B
param **.source_079.app[0].replyLength 20B
param **.source_079.app[0].thinkTime 0s
param **.source_079.app[0].numRequestsPerSession 77
param **.tcp.mss 1400
param **.tcp.tcpAlgorithmClass "\"TcpReno\""
param **.tcp.crcMode "\"computed\""
param **.app[*].dataTransferMode "\"object\""

statistic FatTree_4_seed3_jitter.sink_000.app[0] endToEndDelay:histogram
field count 77
field mean 0.012865155844156
field stddev 0.0016664663139089
field min 0.008729
field max 0.017026
field sum 0.990617
field sqrsum 0.012955502445
attr interpolationmode none
attr source dataAge(packetReceived)
attr title "end-to-end delay, histogram"
attr unit s
bin	-inf	0
bin	0.0066	0
bin	0.0068	0
bin	0.007	0
bin	0.0072	0
bin	0.0074	0
bin	0.0076	0
bin	0.0078	0
bin	0.008	0
bin	0.0082	0
bin	0.0084	0
bin	0.0086	1
bin	0.0088	0
bin	0.009	1
bin	0.0092	0
bin	0.0094	1
bin	0.0096	1
bin	0.0098	0
bin	0.01	3
bin	0.0102	0
bin	0.0104	2
bin	0.0106	0
bin	0.0108	1
bin	0.011	2
bin	0.0112	3
bin	0.0114	3
bin	0.0116	0
bin	0.0118	0
bin	0.012	5
bin	0.0122	3
bin	0.0124	3
bin	0.0126	4
bin	0.0128	8
bin	0.013	2
bin	0.0132	6
bin	0.0134	4
bin	0.0136	3
bin	0.0138	2
bin	0.014	4
bin	0.0142	2
bin	0.0144	2
bin	0.0146	2
bin	0.0148	2
bin	0.015	3
bin	0.0152	0
bin	0.0154	2
bin	0.0156	0
bin	0.0158	0
bin	0.016	0
bin	0.0162	0
bin	0.0164	1
bin	0.0166	0
bin	0.0168	0
bin	0.017	1
bin	0.0172	0
bin	0.0174	0
bin	0.0176	0
bin	0.0178	0
bin	0.018	0
bin	0.0182	0
bin	0.0184	0
bin	0.0186	0
bin	0.0188	0
bin	0.019	0
bin	0.0192	0
statistic FatTree_4_seed3_jitter.sink_000.app[0] endToEndDelay:weightedHistogram
field count 77
field mean 0.012865155844156
field stddev 0.0016664663139089
field min 0.008729
field max 0.017026
field weights 800800
field weightedSum 10302.4168
field sqrSumWeights 8328320000
field weightedSqrSum 134.737225428
attr interpolationmode none
attr source dataAge(packetReceived)
attr title "end-to-end delay, weightedHistogram"
attr unit s
bin	-inf	0
bin	0.0066	0
bin	0.0068	0
bin	0.007	0
bin	0.0072	0
bin	0.0074	0
bin	0.0076	0
bin	0.0078	0
bin	0.008	0
bin	0.0082	0
bin	0.0084	0
bin	0.0086	10400
bin	0.0088	0
bin	0.009	10400
bin	0.0092	0
bin	0.0094	10400
bin	0.0096	10400
bin	0.0098	0
bin	0.01	31200
bin	0.0102	0
bin	0.0104	20800
bin	0.0106	0
bin	0.0108	10400
bin	0.011	20800
bin	0.0112	31200
bin	0.0114	31200
bin	0.0116	0
bin	0.0118	0
bin	0.012	52000
bin	0.0122	31200
bin	0.0124	31200
bin	0.0126	41600
bin	0.0128	83200
bin	0.013	20800
bin	0.0132	62400
bin	0.0134	41600
bin	0.0136	31200
bin	0.0138	20800
bin	0.014	41600
bin	0.0142	20800
bin	0.0144	20800
bin	0.0146	20800
bin	0.0148	20800
bin	0.015	31200
bin	0.0152	0
bin	0.0154	20800
bin	0.0156	0
bin	0.0158	0
bin	0.016	0
bin	0.0162	0
bin	0.0164	10400
bin	0.0166	0
bin	0.0168	0
bin	0.017	10400
bin	0.0172	0
bin	0.0174	0
bin	0.0176	0
bin	0.0178	0
bin	0.018	0
bin	0.0182	0
bin	0.0184	0
bin	0.0186	0
bin	0.0188	0
bin	0.019	0
bin	0.0192	0
statistic FatTree_4_seed3_jitter.sink_001.app[0] endToEndDelay:histogram
field count 77
field mean 0.01243761038961
field stddev 0.0014574507859873
field min 0.009255
field max 0.015153
field sum 0.957696
field sqrsum 0.012072886092
attr interpolationmode none
attr source dataAge(packetReceived)
attr title "end-to-end delay, histogram"
attr unit s
bin	-inf	0
bin	0.0077	0
bin	0.0078	0
bin	0.0079	0
bin	0.008	0
bin	0.0081	0
bin	0.0082	0
bin	0.0083	0
bin	0.0084	0
bin	0.0085	0
bin	0.0086	0
bin	0.0087	0
bin	0.0088	0
bin	0.0089	0
bin	0.009	0
bin	0.0091	0
bin	0.0092	1
bin	0.0093	0
bin	0.0094	0
bin	0.0095	1
bin	0.0096	1
bin	0.0097	0
bin	0.0098	1
bin	0.0099	0
bin	0.01	2
bin	0.0101	2
bin	0.0102	0
bin	0.0103	2
bin	0.0104	1
bin	0.0105	0
bin	0.0106	1
bin	0.0107	0
bin	0.0108	0
bin	0.0109	2
bin	0.011	2
bin	0.0111	1
bin	0.0112	1
bin	0.0113	2
bin	0.0114	3
bin	0.0115	1
bin	0.0116	1
bin	0.0117	1
bin	0.0118	0
bin	0.0119	2
bin	0.012	1
bin	0.0121	1
bin	0.0122	0
bin	0.0123	2
bin	0.0124	2
bin	0.0125	5
bin	0.0126	2
bin	0.0127	3
bin	0.0128	2
bin	0.0129	2
bin	0.013	1
bin	0.0131	2
bin	0.0132	2
bin	0.0133	3
bin	0.0134	3
bin	0.0135	1
bin	0.0136	2
bin	0.0137	1
bin	0.0138	0
bin	0.0139	1
bin	0.014	2
bin	0.0141	3
bin	0.0142	2
bin	0.0143	1
bin	0.0144	0
bin	0.0145	1
bin	0.0146	0
bin	0.0147	1
bin	0.0148	0
bin	0.0149	0
bin	0.015	2
bin	0.0151	1
bin	0.0152	0
bin	0.0153	0
bin	0.0154	0
bin	0.0155	0
bin	0.0156	0
bin	0.0157	0
bin	0.0158	0
bin	0.0159	0
bin	0.016	0
bin	0.0161	0
bin	0.0162	0
bin	0.0163	0
bin	0.0164	0
bin	0.0165	0
bin	0.0166	0
bin	0.0167	0
statistic FatTree_4_seed3_jitter.sink_001.app[0] endToEndDelay:weightedHistogram
field count 77
field mean 0.01243761038961
field stddev 0.0014574507859873
field min 0.009255
field max 0.015153
field weights 800800
field weightedSum 9960.0384
field sqrSumWeights 8328320000
field weightedSqrSum 125.5580153568
attr interpolationmode none
attr source dataAge(packetReceived)
attr title "end-to-end delay, weightedHistogram"
attr unit s
bin	-inf	0
bin	0.0077	0
bin	0.0078	0
bin	0.0079	0
bin	0.008	0
bin	0.0081	0
bin	0.0082	0
bin	0.0083	0
bin	0.0084	0
bin	0.0085	0
bin	0.0086	0
bin	0.0087	0
bin	0.0088	0
bin	0.0089	0
bin	0.009	0
bin	0.0091	0
bin	0.0092	10400
bin	0.0093	0
bin	0.0094	0
bin	0.0095	10400
bin	0.0096	10400
bin	0.0097	0
bin	0.0098	10400
bin	0.0099	0
bin	0.01	20800
bin	0.0101	20800
bin	0.0102	0
bin	0.0103	20800
bin	0.0104	10400
bin	0.0105	0
bin	0.0106	10400
bin	0.0107	0
bin	0.0108	0
bin	0.0109	20800
bin	0.011	20800
bin	0.0111	10400
bin	0.0112	10400
bin	0.0113	20800
bin	0.0114	31200
bin	0.0115	10400
bin	0.0116	10400
bin	0.0117	10400
bin	0.0118	0
bin	0.0119	20800
bin	0.012	10400
bin	0.0121	10400
bin	0.0122	0
bin	0.0123	20800
bin	0.0124	20800
bin	0.0125	52000
bin	0.0126	20800
bin	0.0127	31200
bin	0.0128	20800
bin	0.0129	20800
bin	0.013	10400
bin	0.0131	20800
bin	0.0132	20800
bin	0.0133	31200
bin	0.0134	31200
bin	0.0135	10400
bin	0.0136	20800
bin	0.0137	10400
bin	0.0138	0
bin	0.0139	10400
bin	0.014	20800
bin	0.0141	31200
bin	0.0142	20800
bin	0.0143	10400
bin	0.0144	0
bin	0.0145	10400
bin	0.0146	0
bin	0.0147	10400
bin	0.0148	0
bin	0.0149	0
bin	0.015	20800
bin	0.0151	10400
bin	0.0152	0
bin	0.0153	0
bin	0.0154	0
bin	0.0155	0
bin	0.0156	0
bin	0.0157	0
bin	0.0158	0
bin	0.0159	0
bin	0.016	0
bin	0.0161	0
bin	0.0162	0
bin	0.0163	0
bin	0.0164	0
bin	0.0165	0
bin	0.0166	0
bin	0.0167	0
statistic FatTree_4_seed3_jitter.sink_002.app[0] endToEndDelay:histogram
field count 77
field mean 0.012487948051948
field stddev 0.0015321887843703
field min 0.008729
field max 0.016493
field sum 0.961572
field sqrsum 0.012186478972
attr interpolationmode none
attr source dataAge(packetReceived)
attr title "end-to-end delay, histogram"
attr unit s
bin	-inf	0
bin	0.0066	0
bin	0.0068	0
bin	0.007	0
bin	0.0072	0
bin	0.0074	0
bin	0.0076	0
bin	0.0078	0
bin	0.008	0
bin	0.0082	0
bin	0.0084	0
bin	0.0086	1
bin	0.0088	1
bin	0.009	0
bin	0.0092	0
bin	0.0094	0
bin	0.0096	0
bin	0.0098	2
bin	0.01	3
bin	0.0102	1
bin	0.0104	1
bin	0.0106	1
bin	0.0108	3
bin	0.011	1
bin	0.0112	2
bin	0.0114	5
bin	0.0116	4
bin	0.0118	2
bin	0.012	4
bin	0.0122	2
bin	0.0124	7
bin	0.0126	4
bin	0.0128	6
bin	0.013	6
bin	0.0132	2
bin	0.0134	1
bin	0.0136	2
bin	0.0138	4
bin	0.014	3
bin	0.0142	1
bin	0.0144	2
bin	0.0146	2
bin	0.0148	1
bin	0.015	0
bin	0.0152	1
bin	0.0154	0
bin	0.0156	0
bin	0.0158	0
bin	0.016	1
bin	0.0162	0
bin	0.0164	1
bin	0.0166	0
bin	0.0168	0
bin	0.017	0
bin	0.0172	0
bin	0.0174	0
bin	0.0176	0
bin	0.0178	0
bin	0.018	0
bin	0.0182	0
bin	0.0184	0
bin	0.0186	0
statistic FatTree_4_seed3_jitter.sink_002.app[0] endToEndDelay:weightedHistogram
field count 77
field mean 0.012487948051948
field stddev 0.0015321887843703
field min 0.008729
field max 0.016493
field weights 800800
field weightedSum 10000.3488
field sqrSumWeights 8328320000
field weightedSqrSum 126.7393813088
attr interpolationmode none
attr source dataAge(packetReceived)
attr title "end-to-end delay, weightedHistogram"
attr unit s
bin	-inf	0
bin	0.0066	0
bin	0.0068	0
bin	0.007	0
bin	0.0072	0
bin	0.0074	0
bin	0.0076	0
bin	0.0078	0
bin	0.008	0
bin	0.0082	0
bin	0.0084	0
bin	0.0086	10400
bin	0.0088	10400
bin	0.009	0
bin	0.0092	0
bin	0.0094	0
bin	0.0096	0
bin	0.0098	20800
bin	0.01	31200
bin	0.0102	10400
bin	0.0104	10400
bin	0.0106	10400
bin	0.0108	31200
bin	0.011	10400
bin	0.0112	20800
bin	0.0114	52000
bin	0.0116	41600
bin	0.0118	20800
bin	0.012	41600
bin	0.0122	20800
bin	0.0124	72800
bin	0.0126	41600
bin	0.0128	62400
bin	0.013	62400
bin	0.0132	20800
bin	0.0134	10400
bin	0.0136	20800
bin	0.0138	41600
bin	0.014	31200
bin	0.0142	10400
bin	0.0144	20800
bin	0.0146	20800
bin	0.0148	10400
bin	0.015	0
bin	0.0152	10400
bin	0.0154	0
bin	0.0156	0
bin	0.0158	0
bin	0.016	10400
bin	0.0162	0
bin	0.0164	10400
bin	0.0166	0
bin	0.0168	0
bin	0.017	0
bin	0.0172	0
bin	0.0174	0
bin	0.0176	0
bin	0.0178	0
bin	0.018	0
bin	0.0182	0
bin	0.0184	0
bin	0.0186	0
statistic FatTree_4_seed3_jitter.sink_003.app[0] endToEndDelay:histogram
field count 77
field mean 0.013436012987013
field stddev 0.0016313559866235
field min 0.008803
field max 0.016433
field sum 1.034573
field sqrsum 0.014102796763
attr interpolationmode none
attr source dataAge(packetReceived)
attr title "end-to-end delay, histogram"
attr unit s
bin	-inf	0
bin	0.0068	0
bin	0.007	0
bin	0.0072	0
bin	0.0074	0
bin	0.0076	0
bin	0.0078	0
bin	0.008	0
bin	0.0082	0
bin	0.0084	0
bin	0.0086	0
bin	0.0088	1
bin	0.009	0
bin	0.0092	0
bin	0.0094	0
bin	0.0096	1
bin	0.0098	1
bin	0.01	0
bin	0.0102	1
bin	0.0104	1
bin	0.0106	1
bin	0.0108	1
bin	0.011	1
bin	0.0112	2
bin	0.0114	2
bin	0.0116	2
bin	0.0118	3
bin	0.012	2
bin	0.0122	1
bin	0.0124	2
bin	0.0126	1
bin	0.0128	4
bin	0.013	2
bin	0.0132	3
bin	0.0134	3
bin	0.0136	2
bin	0.0138	7
bin	0.014	1
bin	0.0142	7
bin	0.0144	4
bin	0.0146	7
bin	0.0148	2
bin	0.015	4
bin	0.0152	2
bin	0.0154	2
bin	0.0156	1
bin	0.0158	2
bin	0.016	0
bin	0.0162	0
bin	0.0164	1
bin	0.0166	0
bin	0.0168	0
bin	0.017	0
bin	0.0172	0
bin	0.0174	0
bin	0.0176	0
bin	0.0178	0
bin	0.018	0
bin	0.0182	0
bin	0.0184	0
statistic FatTree_4_seed3_jitter.sink_003.app[0] endToEndDelay:weightedHistogram
field count 77
field mean 0.013436012987013
field stddev 0.0016313559866235
field min 0.008803
field max 0.016433
field weights 800800
field weightedSum 10759.5592
field sqrSumWeights 8328320000
field weightedSqrSum 146.6690863352
attr interpolationmode none
attr source dataAge(packetReceived)
attr title "end-to-end delay, weightedHistogram"
attr unit s
bin	-inf	0
bin	0.0068	0
bin	0.007	0
bin	0.0072	0
bin	0.0074	0
bin	0.0076	0
bin	0.0078	0
bin	0.008	0
bin	0.0082	0
bin	0.0084	0
bin	0.0086	0
bin	0.0088	10400
bin	0.009	0
bin	0.0092	0
bin	0.0094	0
bin	0.0096	10400
bin	0.0098	10400
bin	0.01	0
bin	0.0102	10400
bin	0.0104	10400
bin	0.0106	10400
bin	0.0108	10400
bin	0.011	10400
bin	0.0112	20800
bin	0.0114	20800
bin	0.0116	20800
bin	0.0118	31200
bin	0.012	20800
bin	0.0122	10400
bin	0.0124	20800
bin	0.0126	10400
bin	0.0128	41600
bin	0.013	20800
bin	0.0132	31200
bin	0.0134	31200
bin	0.0136	20800
bin	0.0138	72800
bin	0.014	10400
bin	0.0142	72800
bin	0.0144	41600
bin	0.0146	72800
bin	0.0148	20800
bin	0.015	41600
bin	0.0152	20800
bin	0.0154	20800
bin	0.0156	10400
bin	0.0158	20800
bin	0.016	0
bin	0.0162	0
bin	0.0164	10400
bin	0.0166	0
bin	0.0168	0
bin	0.017	0
bin	0.0172	0
bin	0.0174	0
bin	0.0176	0
bin	0.0178	0
bin	0.018	0
bin	0.0182	0
bin	0.0184	0
statistic FatTree_4_seed3_jitter.sink_004.app[0] endToEndDelay:histogram
field count 77
field mean 0.011994077922078
field stddev 0.0020114224919734
field min 0.008729
field max 0.017166
field sum 0.923544
field sqrsum 0.011384541054
attr interpolationmode none
attr source dataAge(packetReceived)
attr title "end-to-end delay, histogram"
attr unit s
bin	-inf	0
bin	0.0066	0
bin	0.0068	0
bin	0.007	0
bin	0.0072	0
bin	0.0074	0
bin	0.0076	0
bin	0.0078	0
bin	0.008	0
bin	0.0082	0
bin	0.0084	0
bin	0.0086	7
bin	0.0088	0
bin	0.009	0
bin	0.0092	0
bin	0.0094	2
bin	0.0096	2
bin	0.0098	3
bin	0.01	4
bin	0.0102	3
bin	0.0104	1
bin	0.0106	1
bin	0.0108	1
bin	0.011	3
bin	0.0112	3
bin	0.0114	3
bin	0.0116	2
bin	0.0118	4
bin	0.012	4
bin	0.0122	2
bin	0.0124	4
bin	0.0126	3
bin	0.0128	3
bin	0.013	2
bin	0.0132	2
bin	0.0134	0
bin	0.0136	1
bin	0.0138	2
bin	0.014	5
bin	0.0142	1
bin	0.0144	0
bin	0.0146	2
bin	0.0148	0
bin	0.015	0
bin	0.0152	2
bin	0.0154	2
bin	0.0156	1
bin	0.0158	1
bin	0.016	0
bin	0.0162	0
bin	0.0164	0
bin	0.0166	0
bin	0.0168	0
bin	0.017	1
bin	0.0172	0
bin	0.0174	0
bin	0.0176	0
bin	0.0178	0
bin	0.018	0
bin	0.0182	0
bin	0.0184	0
bin	0.0186	0
bin	0.0188	0
bin	0.019	0
bin	0.0192	0
bin	0.0194	0
statistic FatTree_4_seed3_jitter.sink_004.app[0] endToEndDelay:weightedHistogram
field count 77
field mean 0.011994077922078
field stddev 0.0020114224919735
field min 0.008729
field max 0.017166
field weights 800800
field weightedSum 9604.8576
field sqrSumWeights 8328320000
field weightedSqrSum 118.3992269616
attr interpolationmode none
attr source dataAge(packetReceived)
attr title "end-to-end delay, weightedHistogram"
attr unit s
bin	-inf	0
bin	0.0066	0
bin	0.0068	0
bin	0.007	0
bin	0.0072	0
bin	0.0074	0
bin	0.0076	0
bin	0.0078	0
bin	0.008	0
bin	0.0082	0
bin	0.0084	0
bin	0.0086	72800
bin	0.0088	0
bin	0.009	0
bin	0.0092	0
bin	0.0094	20800
bin	0.0096	20800
bin	0.0098	31200
bin	0.01	41600
bin	0.0102	31200
bin	0.0104	10400
bin	0.0106	10400
bin	0.0108	10400
bin	0.011	31200
bin	0.0112	31200
bin	0.0114	31200
bin	0.0116	20800
bin	0.0118	41600
bin	0.012	41600
bin	0.0122	20800
bin	0.0124	41600
bin	0.0126	31200
bin	0.0128	31200
bin	0.013	20800
bin	0.0132	20800
bin	0.0134	0
bin	0.0136	10400
bin	0.0138	20800
bin	0.014	52000
bin	0.0142	10400
bin	0.0144	0
bin	0.0146	20800
bin	0.0148	0
bin	0.015	0
bin	0.0152	20800
bin	0.0154	20800
bin	0.0156	10400
bin	0.0158	10400
bin	0.016	0
bin	0.0162	0
bin	0.0164	0
bin	0.0166	0
bin	0.0168	0
bin	0.017	10400
bin	0.0172	0
bin	0.0174	0
bin	0.0176	0
bin	0.0178	0
bin	0.018	0
bin	0.0182	0
bin	0.0184	0
bin	0.0186	0
bin	0.0188	0
bin	0.019	0
bin	0.0192	0
bin	0.0194	0
statistic FatTree_4_seed3_jitter.sink_005.app[0] endToEndDelay:histogram
field count 77
field mean 0.012105194805195
field stddev 0.0018525480676977
field min 0.008729
field max 0.018032
field sum 0.9321
field sqrsum 0.011544079088
attr interpolationmode none
attr source dataAge(packetReceived)
attr title "end-to-end delay, histogram"
attr unit s
bin	-inf	0
bin	0.0064	0
bin	0.0066	0
bin	0.0068	0
bin	0.007	0
bin	0.0072	0
bin	0.0074	0
bin	0.0076	0
bin	0.0078	0
bin	0.008	0
bin	0.0082	0
bin	0.0084	0
bin	0.0086	4
bin	0.0088	1
bin	0.009	1
bin	0.0092	0
bin	0.0094	0
bin	0.0096	2
bin	0.0098	2
bin	0.01	2
bin	0.0102	3
bin	0.0104	1
bin	0.0106	1
bin	0.0108	3
bin	0.011	1
bin	0.0112	1
bin	0.0114	5
bin	0.0116	7
bin	0.0118	4
bin	0.012	5
bin	0.0122	2
bin	0.0124	4
bin	0.0126	3
bin	0.0128	8
bin	0.013	1
bin	0.0132	1
bin	0.0134	1
bin	0.0136	2
bin	0.0138	0
bin	0.014	2
bin	0.0142	0
bin	0.0144	2
bin	0.0146	1
bin	0.0148	2
bin	0.015	1
bin	0.0152	2
bin	0.0154	0
bin	0.0156	0
bin	0.0158	0
bin	0.016	0
bin	0.0162	0
bin	0.0164	0
bin	0.0166	1
bin	0.0168	0
bin	0.017	0
bin	0.0172	0
bin	0.0174	0
bin	0.0176	0
bin	0.0178	0
bin	0.018	1
bin	0.0182	0
bin	0.0184	0
bin	0.0186	0
bin	0.0188	0
bin	0.019	0
bin	0.0192	0
bin	0.0194	0
bin	0.0196	0
bin	0.0198	0
bin	0.02	0
bin	0.0202	0
bin	0.0204	0
statistic FatTree_4_seed3_jitter.sink_005.app[0] endToEndDelay:weightedHistogram
field count 77
field mean 0.012105194805195
field stddev 0.0018525480676977
field min 0.008729
field max 0.018032
field weights 800800
field weightedSum 9693.84
field sqrSumWeights 8328320000
field weightedSqrSum 120.0584225152
attr interpolationmode none
attr source dataAge(packetReceived)
attr title "end-to-end delay, weightedHistogram"
attr unit s
bin	-inf	0
bin	0.0064	0
bin	0.0066	0
bin	0.0068	0
bin	0.007	0
bin	0.0072	0
bin	0.0074	0
bin	0.0076	0
bin	0.0078	0
bin	0.008	0
bin	0.0082	0
bin	0.0084	0
bin	0.0086	41600
bin	0.0088	10400
bin	0.009	10400
bin	0.0092	0
bin	0.0094	0
bin	0.0096	20800
bin	0.0098	20800
bin	0.01	20800
bin	0.0102	31200
bin	0.0104	10400
bin	0.0106	10400
bin	0.0108	31200
bin	0.011	10400
bin	0.0112	10400
bin	0.0114	52000
bin	0.0116	72800
bin	0.0118	41600
bin	0.012	52000
bin	0.0122	20800
bin	0.0124	41600
bin	0.0126	31200
bin	0.0128	83200
bin	0.013	10400
bin	0.0132	10400
bin	0.0134	10400
bin	0.0136	20800
bin	0.0138	0
bin	0.014	20800
bin	0.0142	0
bin	0.0144	20800
bin	0.0146	10400
bin	0.0148	20800
bin	0.015	10400
bin	0.0152	20800
bin	0.0154	0
bin	0.0156	0
bin	0.0158	0
bin	0.016	0
bin	0.0162	0
bin	0.0164	0
bin	0.0166	10400
bin	0.0168	0
bin	0.017	0
bin	0.0172	0
bin	0.0174	0
bin	0.0176	0
bin	0.0178	0
bin	0.018	10400
bin	0.0182	0
bin	0.0184	0
bin	0.0186	0
bin	0.0188	0
bin	0.019	0
bin	0.0192	0
bin	0.0194	0
bin	0.0196	0
bin	0.0198	0
bin	0.02	0
bin	0.0202	0
bin	0.0204	0
statistic FatTree_4_seed3_jitter.sink_006.app[0] endToEndDelay:histogram
field count 77
field mean 0.012214948051948
field stddev 0.0015038383687654
field min 0.008729
field max 0.01943
field sum 0.940551
field sqrsum 0.011660657873
attr interpolationmode none
attr source dataAge(packetReceived)
attr title "end-to-end delay, histogram"
attr unit s
bin	-inf	0
bin	0.006	0
bin	0.0062	0
bin	0.0064	0
bin	0.0066	0
bin	0.0068	0
bin	0.007	0
bin	0.0072	0
bin	0.0074	0
bin	0.0076	0
bin	0.0078	0
bin	0.008	0
bin	0.0082	0
bin	0.0084	0
bin	0.0086	2
bin	0.0088	0
bin	0.009	0
bin	0.0092	1
bin	0.0094	0
bin	0.0096	0
bin	0.0098	2
bin	0.01	1
bin	0.0102	1
bin	0.0104	1
bin	0.0106	1
bin	0.0108	3
bin	0.011	3
bin	0.0112	3
bin	0.0114	7
bin	0.0116	2
bin	0.0118	6
bin	0.012	6
bin	0.0122	2
bin	0.0124	7
bin	0.0126	7
bin	0.0128	7
bin	0.013	1
bin	0.0132	5
bin	0.0134	0
bin	0.0136	1
bin	0.0138	2
bin	0.014	3
bin	0.0142	0
bin	0.0144	0
bin	0.0146	0
bin	0.0148	1
bin	0.015	1
bin	0.0152	0
bin	0.0154	0
bin	0.0156	0
bin	0.0158	0
bin	0.016	0
bin	0.0162	0
bin	0.0164	0
bin	0.0166	0
bin	0.0168	0
bin	0.017	0
bin	0.0172	0
bin	0.0174	0
bin	0.0176	0
bin	0.0178	0
bin	0.018	0
bin	0.0182	0
bin	0.0184	0
bin	0.0186	0
bin	0.0188	0
bin	0.019	0
bin	0.0192	0
bin	0.0194	1
bin	0.0196	0
bin	0.0198	0
bin	0.02	0
bin	0.0202	0
bin	0.0204	0
bin	0.0206	0
bin	0.0208	0
bin	0.021	0
bin	0.0212	0
bin	0.0214	0
bin	0.0216	0
bin	0.0218	0
bin	0.022	0
bin	0.0222	0
statistic FatTree_4_seed3_jitter.sink_006.app[0] endToEndDelay:weightedHistogram
field count 77
field mean 0.012214948051948
field stddev 0.0015038383687655
field min 0.008729
field max 0.01943
field weights 800800
field weightedSum 9781.7304
field sqrSumWeights 8328320000
field weightedSqrSum 121.2708418792
attr interpolationmode none
attr source dataAge(packetReceived)
attr title "end-to-end delay, weightedHistogram"
attr unit s
bin	-inf	0
bin	0.006	0
bin	0.0062	0
bin	0.0064	0
bin	0.0066	0
bin	0.0068	0
bin	0.007	0
bin	0.0072	0
bin	0.0074	0
bin	0.0076	0
bin	0.0078	0
bin	0.008	0
bin	0.0082	0
bin	0.0084	0
bin	0.0086	20800
bin	0.0088	0
bin	0.009	0
bin	0.0092	10400
bin	0.0094	0
bin	0.0096	0
bin	0.0098	20800
bin	0.01	10400
bin	0.0102	10400
bin	0.0104	10400
bin	0.0106	10400
bin	0.0108	31200
bin	0.011	31200
bin	0.0112	31200
bin	0.0114	72800
bin	0.0116	20800
bin	0.0118	62400
bin	0.012	62400
bin	0.0122	20800
bin	0.0124	72800
bin	0.0126	72800
bin	0.0128	72800
bin	0.013	10400
bin	0.0132	52000
bin	0.0134	0
bin	0.0136	10400
bin	0.0138	20800
bin	0.014	31200
bin	0.0142	0
bin	0.0144	0
bin	0.0146	0
bin	0.0148	10400
bin	0.015	10400
bin	0.0152	0
bin	0.0154	0
bin	0.0156	0
bin	0.0158	0
bin	0.016	0
bin	0.0162	0
bin	0.0164	0
bin	0.0166	0
bin	0.0168	0
bin	0.017	0
bin	0.0172	0
bin	0.0174	0
bin	0.0176	0
bin	0.0178	0
bin	0.018	0
bin	0.0182	0
bin	0.0184	0
bin	0.0186	0
bin	0.0188	0
bin	0.019	0
bin	0.0192	0
bin	0.0194	10400
bin	0.0196	0
bin	0.0198	0
bin	0.02	0
bin	0.0202	0
bin	0.0204	0
bin	0.0206	0
bin	0.0208	0
bin	0.021	0
bin	0.0212	0
bin	0.0214	0
bin	0.0216	0
bin	0.0218	0
bin	0.022	0
bin	0.0222	0
statistic FatTree_4_seed3_jitter.sink_007.app[0] endToEndDelay:histogram
field count 77
field mean 0.011915818181818
field stddev 0.0018032939577579
field min 0.008729
field max 0.020816
field sum 0.917518
field sqrsum 0.011180119718
attr interpolationmode none
attr source dataAge(packetReceived)
attr title "end-to-end delay, histogram"
attr unit s
bin	-inf	0
bin	0.0056	0
bin	0.0058	0
bin	0.006	0
bin	0.0062	0
bin	0.0064	0
bin	0.0066	0
bin	0.0068	0
bin	0.007	0
bin	0.0072	0
bin	0.0074	0
bin	0.0076	0
bin	0.0078	0
bin	0.008	0
bin	0.0082	0
bin	0.0084	0
bin	0.0086	3
bin	0.0088	0
bin	0.009	1
bin	0.0092	0
bin	0.0094	0
bin	0.0096	1
bin	0.0098	3
bin	0.01	4
bin	0.0102	2
bin	0.0104	3
bin	0.0106	2
bin	0.0108	3
bin	0.011	3
bin	0.0112	4
bin	0.0114	10
bin	0.0116	3
bin	0.0118	2
bin	0.012	4
bin	0.0122	2
bin	0.0124	2
bin	0.0126	2
bin	0.0128	3
bin	0.013	5
bin	0.0132	2
bin	0.0134	0
bin	0.0136	4
bin	0.0138	3
bin	0.014	1
bin	0.0142	1
bin	0.0144	1
bin	0.0146	1
bin	0.0148	0
bin	0.015	1
bin	0.0152	0
bin	0.0154	0
bin	0.0156	0
bin	0.0158	0
bin	0.016	0
bin	0.0162	0
bin	0.0164	0
bin	0.0166	0
bin	0.0168	0
bin	0.017	0
bin	0.0172	0
bin	0.0174	0
bin	0.0176	0
bin	0.0178	0
bin	0.018	0
bin	0.0182	0
bin	0.0184	0
bin	0.0186	0
bin	0.0188	0
bin	0.019	0
bin	0.0192	0
bin	0.0194	0
bin	0.0196	0
bin	0.0198	0
bin	0.02	0
bin	0.0202	0
bin	0.0204	0
bin	0.0206	0
bin	0.0208	1
bin	0.021	0
bin	0.0212	0
bin	0.0214	0
bin	0.0216	0
bin	0.0218	0
bin	0.022	0
bin	0.0222	0
bin	0.0224	0
bin	0.0226	0
bin	0.0228	0
bin	0.023	0
bin	0.0232	0
bin	0.0234	0
bin	0.0236	0
bin	0.0238	0
bin	0.024	0
statistic FatTree_4_seed3_jitter.sink_007.app[0] endToEndDelay:weightedHistogram
field count 77
field mean 0.011915818181818
field stddev 0.0018032939577579
field min 0.008729
field max 0.020816
field weights 800800
field weightedSum 9542.1872
field sqrSumWeights 8328320000
field weightedSqrSum 116.2732450672
attr interpolationmode none
attr source dataAge(packetReceived)
attr title "end-to-end delay, weightedHistogram"
attr unit s
bin	-inf	0
bin	0.0056	0
bin	0.0058	0
bin	0.006	0
bin	0.0062	0
bin	0.0064	0
bin	0.0066	0
bin	0.0068	0
bin	0.007	0
bin	0.0072	0
bin	0.0074	0
bin	0.0076	0
bin	0.0078	0
bin	0.008	0
bin	0.0082	0
bin	0.0084	0
bin	0.0086	31200
bin	0.0088	0
bin	0.009	10400
bin	0.0092	0
bin	0.0094	0
bin	0.0096	10400
bin	0.0098	31200
bin	0.01	41600
bin	0.0102	20800
bin	0.0104	31200
bin	0.0106	20800
bin	0.0108	31200
bin	0.011	31200
bin	0.0112	41600
bin	0.0114	104000
bin	0.0116	31200
bin	0.0118	20800
bin	0.012	41600
bin	0.0122	20800
bin	0.0124	20800
bin	0.0126	20800
bin	0.0128	31200
bin	0.013	52000
bin	0.0132	20800
bin	0.0134	0
bin	0.0136	41600
bin	0.0138	31200
bin	0.014	10400
bin	0.0142	10400
[...]
bin	0.006	480
bin	0.0062	320
bin	0.0064	160
bin	0.0066	0
bin	0.0068	640
bin	0.007	160
bin	0.0072	0
bin	0.0074	320
bin	0.0076	0
bin	0.0078	160
bin	0.008	0
bin	0.0082	0
bin	0.0084	0
bin	0.0086	0
bin	0.0088	0
bin	0.009	0
bin	0.0092	0
bin	0.0094	0
bin	0.0096	0
bin	0.0098	0
scalar FatTree_4_seed3_jitter.source_072.app[0] numActiveSessions:max 1
attr interpolationmode sample-hold
attr source sum(connect)
attr title "number of active sessions, max"
scalar FatTree_4_seed3_jitter.source_072.app[0] numActiveSessions:timeavg 0.001183319
attr interpolationmode sample-hold
attr source sum(connect)
attr title "number of active sessions, timeavg"
statistic FatTree_4_seed3_jitter.source_073.app[0] endToEndDelay:histogram
field count 77
field mean 0.0043120909090909
field stddev 0.0014939434761891
field min 0.001049
field max 0.009544
field sum 0.332031
field sqrsum 0.001601369757
attr interpolationmode none
attr source dataAge(packetReceived)
attr title "end-to-end delay, histogram"
attr unit s
bin	-inf	0
bin	0	0
bin	0.0002	0
bin	0.0004	0
bin	0.0006	0
bin	0.0008	0
bin	0.001	1
bin	0.0012	1
bin	0.0014	0
bin	0.0016	1
bin	0.0018	1
bin	0.002	1
bin	0.0022	2
bin	0.0024	2
bin	0.0026	2
bin	0.0028	6
bin	0.003	0
bin	0.0032	3
bin	0.0034	2
bin	0.0036	7
bin	0.0038	5
bin	0.004	2
bin	0.0042	4
bin	0.0044	4
bin	0.0046	4
bin	0.0048	7
bin	0.005	2
bin	0.0052	5
bin	0.0054	3
bin	0.0056	4
bin	0.0058	0
bin	0.006	1
bin	0.0062	1
bin	0.0064	1
bin	0.0066	1
bin	0.0068	0
bin	0.007	2
bin	0.0072	0
bin	0.0074	1
bin	0.0076	0
bin	0.0078	0
bin	0.008	0
bin	0.0082	0
bin	0.0084	0
bin	0.0086	0
bin	0.0088	0
bin	0.009	0
bin	0.0092	0
bin	0.0094	1
bin	0.0096	0
bin	0.0098	0
bin	0.01	0
bin	0.0102	0
bin	0.0104	0
bin	0.0106	0
bin	0.0108	0
bin	0.011	0
bin	0.0112	0
bin	0.0114	0
bin	0.0116	0
bin	0.0118	0
statistic FatTree_4_seed3_jitter.source_073.app[0] endToEndDelay:weightedHistogram
field count 77
field mean 0.0043120909090909
field stddev 0.0014939434761891
field min 0.001049
field max 0.009544
field weights 12320
field weightedSum 53.12496
field sqrSumWeights 1971200
field weightedSqrSum 0.25621916112
attr interpolationmode none
attr source dataAge(packetReceived)
attr title "end-to-end delay, weightedHistogram"
attr unit s
bin	-inf	0
bin	0	0
bin	0.0002	0
bin	0.0004	0
bin	0.0006	0
bin	0.0008	0
bin	0.001	160
bin	0.0012	160
bin	0.0014	0
bin	0.0016	160
bin	0.0018	160
bin	0.002	160
bin	0.0022	320
bin	0.0024	320
bin	0.0026	320
bin	0.0028	960
bin	0.003	0
bin	0.0032	480
bin	0.0034	320
bin	0.0036	1120
bin	0.0038	800
bin	0.004	320
bin	0.0042	640
bin	0.0044	640
bin	0.0046	640
bin	0.0048	1120
bin	0.005	320
bin	0.0052	800
bin	0.0054	480
bin	0.0056	640
bin	0.0058	0
bin	0.006	160
bin	0.0062	160
bin	0.0064	160
bin	0.0066	160
bin	0.0068	0
bin	0.007	320
bin	0.0072	0
bin	0.0074	160
bin	0.0076	0
bin	0.0078	0
bin	0.008	0
bin	0.0082	0
bin	0.0084	0
bin	0.0086	0
bin	0.0088	0
bin	0.009	0
bin	0.0092	0
bin	0.0094	160
bin	0.0096	0
bin	0.0098	0
bin	0.01	0
bin	0.0102	0
bin	0.0104	0
bin	0.0106	0
bin	0.0108	0
bin	0.011	0
bin	0.0112	0
bin	0.0114	0
bin	0.0116	0
bin	0.0118	0
scalar FatTree_4_seed3_jitter.source_073.app[0] numActiveSessions:max 1
attr interpolationmode sample-hold
attr source sum(connect)
attr title "number of active sessions, max"
scalar FatTree_4_seed3_jitter.source_073.app[0] numActiveSessions:timeavg 0.001183487
attr interpolationmode sample-hold
attr source sum(connect)
attr title "number of active sessions, timeavg"
statistic FatTree_4_seed3_jitter.source_074.app[0] endToEndDelay:histogram
field count 77
field mean 0.0029885714285714
field stddev 0.0015268971066958
field min 0.001049
field max 0.00754
field sum 0.23012
field sqrsum 0.00086491758
attr interpolationmode none
attr source dataAge(packetReceived)
attr title "end-to-end delay, histogram"
attr unit s
bin	-inf	0
bin	0	0
bin	0.0002	0
bin	0.0004	0
bin	0.0006	0
bin	0.0008	0
bin	0.001	7
bin	0.0012	7
bin	0.0014	3
bin	0.0016	6
bin	0.0018	0
bin	0.002	5
bin	0.0022	6
bin	0.0024	2
bin	0.0026	4
bin	0.0028	2
bin	0.003	4
bin	0.0032	3
bin	0.0034	2
bin	0.0036	3
bin	0.0038	5
bin	0.004	2
bin	0.0042	1
bin	0.0044	4
bin	0.0046	1
bin	0.0048	0
bin	0.005	2
bin	0.0052	0
bin	0.0054	2
bin	0.0056	1
bin	0.0058	1
bin	0.006	3
bin	0.0062	0
bin	0.0064	0
bin	0.0066	0
bin	0.0068	0
bin	0.007	0
bin	0.0072	0
bin	0.0074	1
bin	0.0076	0
bin	0.0078	0
bin	0.008	0
bin	0.0082	0
bin	0.0084	0
bin	0.0086	0
bin	0.0088	0
bin	0.009	0
bin	0.0092	0
statistic FatTree_4_seed3_jitter.source_074.app[0] endToEndDelay:weightedHistogram
field count 77
field mean 0.0029885714285714
field stddev 0.0015268971066958
field min 0.001049
field max 0.00754
field weights 12320
field weightedSum 36.8192
field sqrSumWeights 1971200
field weightedSqrSum 0.1383868128
attr interpolationmode none
attr source dataAge(packetReceived)
attr title "end-to-end delay, weightedHistogram"
attr unit s
bin	-inf	0
bin	0	0
bin	0.0002	0
bin	0.0004	0
bin	0.0006	0
bin	0.0008	0
bin	0.001	1120
bin	0.0012	1120
bin	0.0014	480
bin	0.0016	960
bin	0.0018	0
bin	0.002	800
bin	0.0022	960
bin	0.0024	320
bin	0.0026	640
bin	0.0028	320
bin	0.003	640
bin	0.0032	480
bin	0.0034	320
bin	0.0036	480
bin	0.0038	800
bin	0.004	320
bin	0.0042	160
bin	0.0044	640
bin	0.0046	160
bin	0.0048	0
bin	0.005	320
bin	0.0052	0
bin	0.0054	320
bin	0.0056	160
bin	0.0058	160
bin	0.006	480
bin	0.0062	0
bin	0.0064	0
bin	0.0066	0
bin	0.0068	0
bin	0.007	0
bin	0.0072	0
bin	0.0074	160
bin	0.0076	0
bin	0.0078	0
bin	0.008	0
bin	0.0082	0
bin	0.0084	0
bin	0.0086	0
bin	0.0088	0
bin	0.009	0
bin	0.0092	0
scalar FatTree_4_seed3_jitter.source_074.app[0] numActiveSessions:max 1
attr interpolationmode sample-hold
attr source sum(connect)
attr title "number of active sessions, max"
scalar FatTree_4_seed3_jitter.source_074.app[0] numActiveSessions:timeavg 0.001135055
attr interpolationmode sample-hold
attr source sum(connect)
attr title "number of active sessions, timeavg"
statistic FatTree_4_seed3_jitter.source_075.app[0] endToEndDelay:histogram
field count 77
field mean 0.0020074805194805
field stddev 0.0008663796209756
field min 0.001049
field max 0.004394
field sum 0.154576
field sqrsum 0.000367354946
attr interpolationmode none
attr source dataAge(packetReceived)
attr title "end-to-end delay, histogram"
attr unit s
bin	-inf	0
bin	0.0002	0
bin	0.0003	0
bin	0.0004	0
bin	0.0005	0
bin	0.0006	0
bin	0.0007	0
bin	0.0008	0
bin	0.0009	0
bin	0.001	18
bin	0.0011	4
bin	0.0012	3
bin	0.0013	1
bin	0.0014	1
bin	0.0015	3
bin	0.0016	2
bin	0.0017	4
bin	0.0018	2
bin	0.0019	3
bin	0.002	1
bin	0.0021	3
bin	0.0022	1
bin	0.0023	8
bin	0.0024	4
bin	0.0025	3
bin	0.0026	3
bin	0.0027	1
bin	0.0028	0
bin	0.0029	0
bin	0.003	2
bin	0.0031	1
bin	0.0032	2
bin	0.0033	1
bin	0.0034	0
bin	0.0035	3
bin	0.0036	0
bin	0.0037	0
bin	0.0038	1
bin	0.0039	0
bin	0.004	0
bin	0.0041	0
bin	0.0042	1
bin	0.0043	1
bin	0.0044	0
bin	0.0045	0
bin	0.0046	0
bin	0.0047	0
bin	0.0048	0
bin	0.0049	0
bin	0.005	0
bin	0.0051	0
bin	0.0052	0
bin	0.0053	0
statistic FatTree_4_seed3_jitter.source_075.app[0] endToEndDelay:weightedHistogram
field count 77
field mean 0.0020074805194805
field stddev 0.00086637962097561
field min 0.001049
field max 0.004394
field weights 12320
field weightedSum 24.73216
field sqrSumWeights 1971200
field weightedSqrSum 0.05877679136
attr interpolationmode none
attr source dataAge(packetReceived)
attr title "end-to-end delay, weightedHistogram"
attr unit s
bin	-inf	0
bin	0.0002	0
bin	0.0003	0
bin	0.0004	0
bin	0.0005	0
bin	0.0006	0
bin	0.0007	0
bin	0.0008	0
bin	0.0009	0
bin	0.001	2880
bin	0.0011	640
bin	0.0012	480
bin	0.0013	160
bin	0.0014	160
bin	0.0015	480
bin	0.0016	320
bin	0.0017	640
bin	0.0018	320
bin	0.0019	480
bin	0.002	160
bin	0.0021	480
bin	0.0022	160
bin	0.0023	1280
bin	0.0024	640
bin	0.0025	480
bin	0.0026	480
bin	0.0027	160
bin	0.0028	0
bin	0.0029	0
bin	0.003	320
bin	0.0031	160
bin	0.0032	320
bin	0.0033	160
bin	0.0034	0
bin	0.0035	480
bin	0.0036	0
bin	0.0037	0
bin	0.0038	160
bin	0.0039	0
bin	0.004	0
bin	0.0041	0
bin	0.0042	160
bin	0.0043	160
bin	0.0044	0
bin	0.0045	0
bin	0.0046	0
bin	0.0047	0
bin	0.0048	0
bin	0.0049	0
bin	0.005	0
bin	0.0051	0
bin	0.0052	0
bin	0.0053	0
scalar FatTree_4_seed3_jitter.source_075.app[0] numActiveSessions:max 1
attr interpolationmode sample-hold
attr source sum(connect)
attr title "number of active sessions, max"
scalar FatTree_4_seed3_jitter.source_075.app[0] numActiveSessions:timeavg 0.00109918
attr interpolationmode sample-hold
attr source sum(connect)
attr title "number of active sessions, timeavg"
statistic FatTree_4_seed3_jitter.source_076.app[0] endToEndDelay:histogram
field count 77
field mean 0.0046907662337662
field stddev 0.0015179143663533
field min 0.0013
field max 0.008136
field sum 0.361189
field sqrsum 0.001869362031
attr interpolationmode none
attr source dataAge(packetReceived)
attr title "end-to-end delay, histogram"
attr unit s
bin	-inf	0
bin	0	0
bin	0.0002	0
bin	0.0004	0
bin	0.0006	0
bin	0.0008	0
bin	0.001	0
bin	0.0012	1
bin	0.0014	0
bin	0.0016	0
bin	0.0018	2
bin	0.002	2
bin	0.0022	0
bin	0.0024	3
bin	0.0026	0
bin	0.0028	1
bin	0.003	4
bin	0.0032	2
bin	0.0034	4
bin	0.0036	3
bin	0.0038	4
bin	0.004	3
bin	0.0042	5
bin	0.0044	4
bin	0.0046	2
bin	0.0048	6
bin	0.005	5
bin	0.0052	0
bin	0.0054	1
bin	0.0056	5
bin	0.0058	6
bin	0.006	5
bin	0.0062	2
bin	0.0064	0
bin	0.0066	1
bin	0.0068	0
bin	0.007	1
bin	0.0072	2
bin	0.0074	0
bin	0.0076	0
bin	0.0078	0
bin	0.008	3
bin	0.0082	0
bin	0.0084	0
bin	0.0086	0
bin	0.0088	0
bin	0.009	0
bin	0.0092	0
bin	0.0094	0
bin	0.0096	0
bin	0.0098	0
bin	0.01	0
statistic FatTree_4_seed3_jitter.source_076.app[0] endToEndDelay:weightedHistogram
field count 77
field mean 0.0046907662337662
field stddev 0.0015179143663533
field min 0.0013
field max 0.008136
field weights 12320
field weightedSum 57.79024
field sqrSumWeights 1971200
field weightedSqrSum 0.29909792496
attr interpolationmode none
attr source dataAge(packetReceived)
attr title "end-to-end delay, weightedHistogram"
attr unit s
bin	-inf	0
bin	0	0
bin	0.0002	0
bin	0.0004	0
bin	0.0006	0
bin	0.0008	0
bin	0.001	0
bin	0.0012	160
bin	0.0014	0
bin	0.0016	0
bin	0.0018	320
bin	0.002	320
bin	0.0022	0
bin	0.0024	480
bin	0.0026	0
bin	0.0028	160
bin	0.003	640
bin	0.0032	320
bin	0.0034	640
bin	0.0036	480
bin	0.0038	640
bin	0.004	480
bin	0.0042	800
bin	0.0044	640
bin	0.0046	320
bin	0.0048	960
bin	0.005	800
bin	0.0052	0
bin	0.0054	160
bin	0.0056	800
bin	0.0058	960
bin	0.006	800
bin	0.0062	320
bin	0.0064	0
bin	0.0066	160
bin	0.0068	0
bin	0.007	160
bin	0.0072	320
bin	0.0074	0
bin	0.0076	0
bin	0.0078	0
bin	0.008	480
bin	0.0082	0
bin	0.0084	0
bin	0.0086	0
bin	0.0088	0
bin	0.009	0
bin	0.0092	0
bin	0.0094	0
bin	0.0096	0
bin	0.0098	0
bin	0.01	0
scalar FatTree_4_seed3_jitter.source_076.app[0] numActiveSessions:max 1
attr interpolationmode sample-hold
attr source sum(connect)
attr title "number of active sessions, max"
scalar FatTree_4_seed3_jitter.source_076.app[0] numActiveSessions:timeavg 0.001186478
attr interpolationmode sample-hold
attr source sum(connect)
attr title "number of active sessions, timeavg"
statistic FatTree_4_seed3_jitter.source_077.app[0] endToEndDelay:histogram
field count 77
field mean 0.0034096883116883
field stddev 0.0016778810200254
field min 0.001049
field max 0.007439
field sum 0.262546
field sqrsum 0.001109161666
attr interpolationmode none
attr source dataAge(packetReceived)
attr title "end-to-end delay, histogram"
attr unit s
bin	-inf	0
bin	0	0
bin	0.0002	0
bin	0.0004	0
bin	0.0006	0
bin	0.0008	0
bin	0.001	8
bin	0.0012	2
bin	0.0014	1
bin	0.0016	2
bin	0.0018	2
bin	0.002	6
bin	0.0022	5
bin	0.0024	5
bin	0.0026	2
bin	0.0028	5
bin	0.003	3
bin	0.0032	1
bin	0.0034	4
bin	0.0036	2
bin	0.0038	1
bin	0.004	1
bin	0.0042	5
bin	0.0044	2
bin	0.0046	2
bin	0.0048	4
bin	0.005	2
bin	0.0052	3
bin	0.0054	0
bin	0.0056	0
bin	0.0058	2
bin	0.006	2
bin	0.0062	1
bin	0.0064	0
bin	0.0066	1
bin	0.0068	1
bin	0.007	0
bin	0.0072	1
bin	0.0074	1
bin	0.0076	0
bin	0.0078	0
bin	0.008	0
bin	0.0082	0
bin	0.0084	0
bin	0.0086	0
bin	0.0088	0
bin	0.009	0
bin	0.0092	0
statistic FatTree_4_seed3_jitter.source_077.app[0] endToEndDelay:weightedHistogram
field count 77
field mean 0.0034096883116883
field stddev 0.0016778810200254
field min 0.001049
field max 0.007439
field weights 12320
field weightedSum 42.00736
field sqrSumWeights 1971200
field weightedSqrSum 0.17746586656
attr interpolationmode none
attr source dataAge(packetReceived)
attr title "end-to-end delay, weightedHistogram"
attr unit s
bin	-inf	0
bin	0	0
bin	0.0002	0
bin	0.0004	0
bin	0.0006	0
bin	0.0008	0
bin	0.001	1280
bin	0.0012	320
bin	0.0014	160
bin	0.0016	320
bin	0.0018	320
bin	0.002	960
bin	0.0022	800
bin	0.0024	800
bin	0.0026	320
bin	0.0028	800
bin	0.003	480
bin	0.0032	160
bin	0.0034	640
bin	0.0036	320
bin	0.0038	160
bin	0.004	160
bin	0.0042	800
bin	0.0044	320
bin	0.0046	320
bin	0.0048	640
bin	0.005	320
bin	0.0052	480
bin	0.0054	0
bin	0.0056	0
bin	0.0058	320
bin	0.006	320
bin	0.0062	160
bin	0.0064	0
bin	0.0066	160
bin	0.0068	160
bin	0.007	0
bin	0.0072	160
bin	0.0074	160
bin	0.0076	0
bin	0.0078	0
bin	0.008	0
bin	0.0082	0
bin	0.0084	0
bin	0.0086	0
bin	0.0088	0
bin	0.009	0
bin	0.0092	0
scalar FatTree_4_seed3_jitter.source_077.app[0] numActiveSessions:max 1
attr interpolationmode sample-hold
attr source sum(connect)
attr title "number of active sessions, max"
scalar FatTree_4_seed3_jitter.source_077.app[0] numActiveSessions:timeavg 0.001169473
attr interpolationmode sample-hold
attr source sum(connect)
attr title "number of active sessions, timeavg"
statistic FatTree_4_seed3_jitter.source_078.app[0] endToEndDelay:histogram
field count 77
field mean 0.0034462727272727
field stddev 0.0015117007295407
field min 0.001049
field max 0.006672
field sum 0.265363
field sqrsum 0.001088191441
attr interpolationmode none
attr source dataAge(packetReceived)
attr title "end-to-end delay, histogram"
attr unit s
bin	-inf	0
bin	0	0
bin	0.0001	0
bin	0.0002	0
bin	0.0003	0
bin	0.0004	0
bin	0.0005	0
bin	0.0006	0
bin	0.0007	0
bin	0.0008	0
bin	0.0009	0
bin	0.001	5
bin	0.0011	0
bin	0.0012	1
bin	0.0013	2
bin	0.0014	1
bin	0.0015	1
bin	0.0016	0
bin	0.0017	2
bin	0.0018	0
bin	0.0019	1
bin	0.002	2
bin	0.0021	2
bin	0.0022	4
bin	0.0023	3
bin	0.0024	2
bin	0.0025	1
bin	0.0026	2
bin	0.0027	0
bin	0.0028	0
bin	0.0029	1
bin	0.003	3
bin	0.0031	4
bin	0.0032	1
bin	0.0033	1
bin	0.0034	3
bin	0.0035	1
bin	0.0036	1
bin	0.0037	3
bin	0.0038	3
bin	0.0039	2
bin	0.004	1
bin	0.0041	1
bin	0.0042	1
bin	0.0043	0
bin	0.0044	1
bin	0.0045	2
bin	0.0046	0
bin	0.0047	1
bin	0.0048	2
bin	0.0049	2
bin	0.005	1
bin	0.0051	0
bin	0.0052	2
bin	0.0053	2
bin	0.0054	1
bin	0.0055	1
bin	0.0056	0
bin	0.0057	1
bin	0.0058	1
bin	0.0059	1
bin	0.006	0
bin	0.0061	0
bin	0.0062	1
bin	0.0063	1
bin	0.0064	1
bin	0.0065	0
bin	0.0066	1
bin	0.0067	0
bin	0.0068	0
bin	0.0069	0
bin	0.007	0
bin	0.0071	0
bin	0.0072	0
bin	0.0073	0
bin	0.0074	0
bin	0.0075	0
bin	0.0076	0
bin	0.0077	0
bin	0.0078	0
bin	0.0079	0
bin	0.008	0
bin	0.0081	0
statistic FatTree_4_seed3_jitter.source_078.app[0] endToEndDelay:weightedHistogram
field count 77
field mean 0.0034462727272727
field stddev 0.0015117007295407
field min 0.001049
field max 0.006672
field weights 12320
field weightedSum 42.45808
field sqrSumWeights 1971200
field weightedSqrSum 0.17411063056
attr interpolationmode none
attr source dataAge(packetReceived)
attr title "end-to-end delay, weightedHistogram"
attr unit s
bin	-inf	0
bin	0	0
bin	0.0001	0
bin	0.0002	0
bin	0.0003	0
bin	0.0004	0
bin	0.0005	0
bin	0.0006	0
bin	0.0007	0
bin	0.0008	0
bin	0.0009	0
bin	0.001	800
bin	0.0011	0
bin	0.0012	160
bin	0.0013	320
bin	0.0014	160
bin	0.0015	160
bin	0.0016	0
bin	0.0017	320
bin	0.0018	0
bin	0.0019	160
bin	0.002	320
bin	0.0021	320
bin	0.0022	640
bin	0.0023	480
bin	0.0024	320
bin	0.0025	160
bin	0.0026	320
bin	0.0027	0
bin	0.0028	0
bin	0.0029	160
bin	0.003	480
bin	0.0031	640
bin	0.0032	160
bin	0.0033	160
bin	0.0034	480
bin	0.0035	160
bin	0.0036	160
bin	0.0037	480
bin	0.0038	480
bin	0.0039	320
bin	0.004	160
bin	0.0041	160
bin	0.0042	160
bin	0.0043	0
bin	0.0044	160
bin	0.0045	320
bin	0.0046	0
bin	0.0047	160
bin	0.0048	320
bin	0.0049	320
bin	0.005	160
bin	0.0051	0
bin	0.0052	320
bin	0.0053	320
bin	0.0054	160
bin	0.0055	160
bin	0.0056	0
bin	0.0057	160
bin	0.0058	160
bin	0.0059	160
bin	0.006	0
bin	0.0061	0
bin	0.0062	160
bin	0.0063	160
bin	0.0064	160
bin	0.0065	0
bin	0.0066	160
bin	0.0067	0
bin	0.0068	0
bin	0.0069	0
bin	0.007	0
bin	0.0071	0
bin	0.0072	0
bin	0.0073	0
bin	0.0074	0
bin	0.0075	0
bin	0.0076	0
bin	0.0077	0
bin	0.0078	0
bin	0.0079	0
bin	0.008	0
bin	0.0081	0
scalar FatTree_4_seed3_jitter.source_078.app[0] numActiveSessions:max 1
attr interpolationmode sample-hold
attr source sum(connect)
attr title "number of active sessions, max"
scalar FatTree_4_seed3_jitter.source_078.app[0] numActiveSessions:timeavg 0.001172767
attr interpolationmode sample-hold
attr source sum(connect)
attr title "number of active sessions, timeavg"
statistic FatTree_4_seed3_jitter.source_079.app[0] endToEndDelay:histogram
field count 77
field mean 0.0033624415584416
field stddev 0.0014643806261523
field min 0.001049
field max 0.00633
field sum 0.258908
field sqrsum 0.001033538226
attr interpolationmode none
attr source dataAge(packetReceived)
attr title "end-to-end delay, histogram"
attr unit s
bin	-inf	0
bin	0	0
bin	0.0001	0
bin	0.0002	0
bin	0.0003	0
bin	0.0004	0
bin	0.0005	0
bin	0.0006	0
bin	0.0007	0
bin	0.0008	0
bin	0.0009	0
bin	0.001	7
bin	0.0011	1
bin	0.0012	0
bin	0.0013	1
bin	0.0014	0
bin	0.0015	1
bin	0.0016	2
bin	0.0017	0
bin	0.0018	1
bin	0.0019	0
bin	0.002	2
bin	0.0021	3
bin	0.0022	3
bin	0.0023	4
bin	0.0024	4
bin	0.0025	1
bin	0.0026	2
bin	0.0027	1
bin	0.0028	1
bin	0.0029	0
bin	0.003	0
bin	0.0031	1
bin	0.0032	3
bin	0.0033	1
bin	0.0034	0
bin	0.0035	2
bin	0.0036	1
bin	0.0037	2
bin	0.0038	4
bin	0.0039	2
bin	0.004	1
bin	0.0041	4
bin	0.0042	1
bin	0.0043	1
bin	0.0044	1
bin	0.0045	3
bin	0.0046	0
bin	0.0047	1
bin	0.0048	0
bin	0.0049	2
bin	0.005	1
bin	0.0051	1
bin	0.0052	1
bin	0.0053	4
bin	0.0054	1
bin	0.0055	0
bin	0.0056	1
bin	0.0057	0
bin	0.0058	1
bin	0.0059	1
bin	0.006	0
bin	0.0061	1
bin	0.0062	0
bin	0.0063	1
bin	0.0064	0
bin	0.0065	0
bin	0.0066	0
bin	0.0067	0
bin	0.0068	0
bin	0.0069	0
bin	0.007	0
bin	0.0071	0
bin	0.0072	0
bin	0.0073	0
bin	0.0074	0
bin	0.0075	0
bin	0.0076	0
bin	0.0077	0
statistic FatTree_4_seed3_jitter.source_079.app[0] endToEndDelay:weightedHistogram
field count 77
field mean 0.0033624415584416
field stddev 0.0014643806261523
field min 0.001049
field max 0.00633
field weights 12320
field weightedSum 41.42528
field sqrSumWeights 1971200
field weightedSqrSum 0.16536611616
attr interpolationmode none
attr source dataAge(packetReceived)
attr title "end-to-end delay, weightedHistogram"
attr unit s
bin	-inf	0
bin	0	0
bin	0.0001	0
bin	0.0002	0
bin	0.0003	0
bin	0.0004	0
bin	0.0005	0
bin	0.0006	0
bin	0.0007	0
bin	0.0008	0
bin	0.0009	0
bin	0.001	1120
bin	0.0011	160
bin	0.0012	0
bin	0.0013	160
bin	0.0014	0
bin	0.0015	160
bin	0.0016	320
bin	0.0017	0
bin	0.0018	160
bin	0.0019	0
bin	0.002	320
bin	0.0021	480
bin	0.0022	480
bin	0.0023	640
bin	0.0024	640
bin	0.0025	160
bin	0.0026	320
bin	0.0027	160
bin	0.0028	160
bin	0.0029	0
bin	0.003	0
bin	0.0031	160
bin	0.0032	480
bin	0.0033	160
bin	0.0034	0
bin	0.0035	320
bin	0.0036	160
bin	0.0037	320
bin	0.0038	640
bin	0.0039	320
bin	0.004	160
bin	0.0041	640
bin	0.0042	160
bin	0.0043	160
bin	0.0044	160
bin	0.0045	480
bin	0.0046	0
bin	0.0047	160
bin	0.0048	0
bin	0.0049	320
bin	0.005	160
bin	0.0051	160
bin	0.0052	160
bin	0.0053	640
bin	0.0054	160
bin	0.0055	0
bin	0.0056	160
bin	0.0057	0
bin	0.0058	160
bin	0.0059	160
bin	0.006	0
bin	0.0061	160
bin	0.0062	0
bin	0.0063	160
bin	0.0064	0
bin	0.0065	0
bin	0.0066	0
bin	0.0067	0
bin	0.0068	0
bin	0.0069	0
bin	0.007	0
bin	0.0071	0
bin	0.0072	0
bin	0.0073	0
bin	0.0074	0
bin	0.0075	0
bin	0.0076	0
bin	0.0077	0
scalar FatTree_4_seed3_jitter.source_079.app[0] numActiveSessions:max 1
attr interpolationmode sample-hold
attr source sum(connect)
attr title "number of active sessions, max"
scalar FatTree_4_seed3_jitter.source_079.app[0] numActiveSessions:timeavg 0.001177607
attr interpolationmode sample-hold
attr source sum(connect)
attr title "number of active sessions, timeavg"

