version 2
run General-0-20220427-20:21:50-21956
attr configname General
attr datetime 20220427-20:21:50
attr experiment General
attr inifile FatTree_4__fvj_dc_traffic_baseline_seed8.ini
attr iterationvars ""
attr iterationvarsf ""
attr measurement ""
attr network FatTree_4__fvj_dc_traffic_baseline_seed8
attr processid 21956
attr repetition 0
attr replication #0
attr resultdir results
attr runnumber 0
attr seedset 0
param **.ppp[*].ppp.queue.typename "\"DropTailQueue\""
param **.ppp[*].ppp.queue.packetCapacity 100
param *.configurator.config "xmldoc(\"FatTree_4__fvj_dc_traffic_baseline_seed8.xml\")"
param **.sink_000.numApps 1
param **.sink_000.app[0].typename "\"TcpGenericServerApp\""
param **.sink_000.app[0].localAddress "\"\""
param **.sink_000.app[0].localPort 1100
param **.sink_000.app[0].replyDelay 0s
param **.sink_001.numApps 1
param **.sink_001.app[0].typename "\"TcpGenericServerApp\""
param **.sink_001.app[0].localAddress "\"\""
param **.sink_001.app[0].localPort 1100
param **.sink_001.app[0].replyDelay 0s
param **.sink_002.numApps 1
param **.sink_002.app[0].typename "\"TcpGenericServerApp\""
param **.sink_002.app[0].localAddress "\"\""
param **.sink_002.app[0].localPort 1100
param **.sink_002.app[0].replyDelay 0s
param **.sink_003.numApps 1
param **.sink_003.app[0].typename "\"TcpGenericServerApp\""
param **.sink_003.app[0].localAddress "\"\""
param **.sink_003.app[0].localPort 1100
param **.sink_003.app[0].replyDelay 0s
param **.sink_004.numApps 1
param **.sink_004.app[0].typename "\"TcpGenericServerApp\""
param **.sink_004.app[0].localAddress "\"\""
param **.sink_004.app[0].localPort 1100
param **.sink_004.app[0].replyDelay 0s
param **.sink_005.numApps 1
param **.sink_005.app[0].typename "\"TcpGenericServerApp\""
param **.sink_005.app[0].localAddress "\"\""
param **.sink_005.app[0].localPort 1100
param **.sink_005.app[0].replyDelay 0s
param **.sink_006.numApps 1
param **.sink_006.app[0].typename "\"TcpGenericServerApp\""
param **.sink_006.app[0].localAddress "\"\""
param **.sink_006.app[0].localPort 1100
param **.sink_006.app[0].replyDelay 0s
param **.sink_007.numApps 1
param **.sink_007.app[0].typename "\"TcpGenericServerApp\""
param **.sink_007.app[0].localAddress "\"\""
param **.sink_007.app[0].localPort 1100
param **.sink_007.app[0].replyDelay 0s
param **.sink_008.numApps 1
param **.sink_008.app[0].typename "\"TcpGenericServerApp\""
param **.sink_008.app[0].localAddress "\"\""
param **.sink_008.app[0].localPort 1100
param **.sink_008.app[0].replyDelay 0s
param **.sink_009.numApps 1
param **.sink_009.app[0].typename "\"TcpGenericServerApp\""
param **.sink_009.app[0].localAddress "\"\""
param **.sink_009.app[0].localPort 1100
param **.sink_009.app[0].replyDelay 0s
param **.sink_010.numApps 1
param **.sink_010.app[0].typename "\"TcpGenericServerApp\""
param **.sink_010.app[0].localAddress "\"\""
param **.sink_010.app[0].localPort 1100
param **.sink_010.app[0].replyDelay 0s
param **.sink_011.numApps 1
param **.sink_011.app[0].typename "\"TcpGenericServerApp\""
param **.sink_011.app[0].localAddress "\"\""
param **.sink_011.app[0].localPort 1100
param **.sink_011.app[0].replyDelay 0s
param **.sink_012.numApps 1
param **.sink_012.app[0].typename "\"TcpGenericServerApp\""
param **.sink_012.app[0].localAddress "\"\""
param **.sink_012.app[0].localPort 1100
param **.sink_012.app[0].replyDelay 0s
param **.sink_013.numApps 1
param **.sink_013.app[0].typename "\"TcpGenericServerApp\""
param **.sink_013.app[0].localAddress "\"\""
param **.sink_013.app[0].localPort 1100
param **.sink_013.app[0].replyDelay 0s
param **.sink_014.numApps 1
param **.sink_014.app[0].typename "\"TcpGenericServerApp\""
param **.sink_014.app[0].localAddress "\"\""
param **.sink_014.app[0].localPort 1100
param **.sink_014.app[0].replyDelay 0s
param **.sink_015.numApps 1
param **.sink_015.app[0].typename "\"TcpGenericServerApp\""
param **.sink_015.app[0].localAddress "\"\""
param **.sink_015.app[0].localPort 1100
param **.sink_015.app[0].replyDelay 0s
param **.sink_016.numApps 1
param **.sink_016.app[0].typename "\"TcpGenericServerApp\""
param **.sink_016.app[0].localAddress "\"\""
param **.sink_016.app[0].localPort 1100
param **.sink_016.app[0].replyDelay 0s
param **.sink_017.numApps 1
param **.sink_017.app[0].typename "\"TcpGenericServerApp\""
param **.sink_017.app[0].localAddress "\"\""
param **.sink_017.app[0].localPort 1100
param **.sink_017.app[0].replyDelay 0s
param **.sink_018.numApps 1
param **.sink_018.app[0].typename "\"TcpGenericServerApp\""
param **.sink_018.app[0].localAddress "\"\""
param **.sink_018.app[0].localPort 1100
param **.sink_018.app[0].replyDelay 0s
param **.sink_019.numApps 1
param **.sink_019.app[0].typename "\"TcpGenericServerApp\""
param **.sink_019.app[0].localAddress "\"\""
param **.sink_019.app[0].localPort 1100
param **.sink_019.app[0].replyDelay 0s
param **.sink_020.numApps 1
param **.sink_020.app[0].typename "\"TcpGenericServerApp\""
param **.sink_020.app[0].localAddress "\"\""
param **.sink_020.app[0].localPort 1100
param **.sink_020.app[0].replyDelay 0s
param **.sink_021.numApps 1
param **.sink_021.app[0].typename "\"TcpGenericServerApp\""
param **.sink_021.app[0].localAddress "\"\""
param **.sink_021.app[0].localPort 1100
param **.sink_021.app[0].replyDelay 0s
param **.sink_022.numApps 1
param **.sink_022.app[0].typename "\"TcpGenericServerApp\""
param **.sink_022.app[0].localAddress "\"\""
param **.sink_022.app[0].localPort 1100
param **.sink_022.app[0].replyDelay 0s
param **.sink_023.numApps 1
param **.sink_023.app[0].typename "\"TcpGenericServerApp\""
param **.sink_023.app[0].localAddress "\"\""
param **.sink_023.app[0].localPort 1100
param **.sink_023.app[0].replyDelay 0s
param **.sink_024.numApps 1
param **.sink_024.app[0].typename "\"TcpGenericServerApp\""
param **.sink_024.app[0].localAddress "\"\""
param **.sink_024.app[0].localPort 1100
param **.sink_024.app[0].replyDelay 0s
param **.sink_025.numApps 1
param **.sink_025.app[0].typename "\"TcpGenericServerApp\""
param **.sink_025.app[0].localAddress "\"\""
param **.sink_025.app[0].localPort 1100
param **.sink_025.app[0].replyDelay 0s
param **.sink_026.numApps 1
param **.sink_026.app[0].typename "\"TcpGenericServerApp\""
param **.sink_026.app[0].localAddress "\"\""
param **.sink_026.app[0].localPort 1100
param **.sink_026.app[0].replyDelay 0s
param **.sink_027.numApps 1
param **.sink_027.app[0].typename "\"TcpGenericServerApp\""
param **.sink_027.app[0].localAddress "\"\""
param **.sink_027.app[0].localPort 1100
param **.sink_027.app[0].replyDelay 0s
param **.sink_028.numApps 1
param **.sink_028.app[0].typename "\"TcpGenericServerApp\""
param **.sink_028.app[0].localAddress "\"\""
param **.sink_028.app[0].localPort 1100
param **.sink_028.app[0].replyDelay 0s
param **.sink_029.numApps 1
param **.sink_029.app[0].typename "\"TcpGenericServerApp\""
param **.sink_029.app[0].localAddress "\"\""
param **.sink_029.app[0].localPort 1100
param **.sink_029.app[0].replyDelay 0s
param **.sink_030.numApps 1
param **.sink_030.app[0].typename "\"TcpGenericServerApp\""
param **.sink_030.app[0].localAddress "\"\""
param **.sink_030.app[0].localPort 1100
param **.sink_030.app[0].replyDelay 0s
param **.sink_031.numApps 1
param **.sink_031.app[0].typename "\"TcpGenericServerApp\""
param **.sink_031.app[0].localAddress "\"\""
param **.sink_031.app[0].localPort 1100
param **.sink_031.app[0].replyDelay 0s
param **.sink_032.numApps 1
param **.sink_032.app[0].typename "\"TcpGenericServerApp\""
param **.sink_032.app[0].localAddress "\"\""
param **.sink_032.app[0].localPort 1100
param **.sink_032.app[0].replyDelay 0s
param **.sink_033.numApps 1
param **.sink_033.app[0].typename "\"TcpGenericServerApp\""
param **.sink_033.app[0].localAddress "\"\""
param **.sink_033.app[0].localPort 1100
param **.sink_033.app[0].replyDelay 0s
param **.sink_034.numApps 1
param **.sink_034.app[0].typename "\"TcpGenericServerApp\""
param **.sink_034.app[0].localAddress "\"\""
param **.sink_034.app[0].localPort 1100
param **.sink_034.app[0].replyDelay 0s
param **.sink_035.numApps 1
param **.sink_035.app[0].typename "\"TcpGenericServerApp\""
param **.sink_035.app[0].localAddress "\"\""
param **.sink_035.app[0].localPort 1100
param **.sink_035.app[0].replyDelay 0s
param **.sink_036.numApps 1
param **.sink_036.app[0].typename "\"TcpGenericServerApp\""
param **.sink_036.app[0].localAddress "\"\""
param **.sink_036.app[0].localPort 1100
param **.sink_036.app[0].replyDelay 0s
param **.sink_037.numApps 1
param **.sink_037.app[0].typename "\"TcpGenericServerApp\""
param **.sink_037.app[0].localAddress "\"\""
param **.sink_037.app[0].localPort 1100
param **.sink_037.app[0].replyDelay 0s
param **.sink_038.numApps 1
param **.sink_038.app[0].typename "\"TcpGenericServerApp\""
param **.sink_038.app[0].localAddress "\"\""
param **.sink_038.app[0].localPort 1100
param **.sink_038.app[0].replyDelay 0s
param **.sink_039.numApps 1
param **.sink_039.app[0].typename "\"TcpGenericServerApp\""
param **.sink_039.app[0].localAddress "\"\""
param **.sink_039.app[0].localPort 1100
param **.sink_039.app[0].replyDelay 0s
param **.sink_040.numApps 1
param **.sink_040.app[0].typename "\"TcpGenericServerApp\""
param **.sink_040.app[0].localAddress "\"\""
param **.sink_040.app[0].localPort 1100
param **.sink_040.app[0].replyDelay 0s
param **.sink_041.numApps 1
param **.sink_041.app[0].typename "\"TcpGenericServerApp\""
param **.sink_041.app[0].localAddress "\"\""
param **.sink_041.app[0].localPort 1100
param **.sink_041.app[0].replyDelay 0s
param **.sink_042.numApps 1
param **.sink_042.app[0].typename "\"TcpGenericServerApp\""
param **.sink_042.app[0].localAddress "\"\""
param **.sink_042.app[0].localPort 1100
param **.sink_042.app[0].replyDelay 0s
param **.sink_043.numApps 1
param **.sink_043.app[0].typename "\"TcpGenericServerApp\""
param **.sink_043.app[0].localAddress "\"\""
param **.sink_043.app[0].localPort 1100
param **.sink_043.app[0].replyDelay 0s
param **.sink_044.numApps 1
param **.sink_044.app[0].typename "\"TcpGenericServerApp\""
param **.sink_044.app[0].localAddress "\"\""
param **.sink_044.app[0].localPort 1100
param **.sink_044.app[0].replyDelay 0s
param **.sink_045.numApps 1
param **.sink_045.app[0].typename "\"TcpGenericServerApp\""
param **.sink_045.app[0].localAddress "\"\""
param **.sink_045.app[0].localPort 1100
param **.sink_045.app[0].replyDelay 0s
param **.sink_046.numApps 1
param **.sink_046.app[0].typename "\"TcpGenericServerApp\""
param **.sink_046.app[0].localAddress "\"\""
param **.sink_046.app[0].localPort 1100
param **.sink_046.app[0].replyDelay 0s
param **.sink_047.numApps 1
param **.sink_047.app[0].typename "\"TcpGenericServerApp\""
param **.sink_047.app[0].localAddress "\"\""
param **.sink_047.app[0].localPort 1100
param **.sink_047.app[0].replyDelay 0s
param **.sink_048.numApps 1
param **.sink_048.app[0].typename "\"TcpGenericServerApp\""
param **.sink_048.app[0].localAddress "\"\""
param **.sink_048.app[0].localPort 1100
param **.sink_048.app[0].replyDelay 0s
param **.sink_049.numApps 1
param **.sink_049.app[0].typename "\"TcpGenericServerApp\""
param **.sink_049.app[0].localAddress "\"\""
param **.sink_049.app[0].localPort 1100
param **.sink_049.app[0].replyDelay 0s
param **.sink_050.numApps 1
param **.sink_050.app[0].typename "\"TcpGenericServerApp\""
param **.sink_050.app[0].localAddress "\"\""
param **.sink_050.app[0].localPort 1100
param **.sink_050.app[0].replyDelay 0s
param **.sink_051.numApps 1
param **.sink_051.app[0].typename "\"TcpGenericServerApp\""
param **.sink_051.app[0].localAddress "\"\""
param **.sink_051.app[0].localPort 1100
param **.sink_051.app[0].replyDelay 0s
param **.sink_052.numApps 1
param **.sink_052.app[0].typename "\"TcpGenericServerApp\""
param **.sink_052.app[0].localAddress "\"\""
param **.sink_052.app[0].localPort 1100
param **.sink_052.app[0].replyDelay 0s
param **.sink_053.numApps 1
param **.sink_053.app[0].typename "\"TcpGenericServerApp\""
param **.sink_053.app[0].localAddress "\"\""
param **.sink_053.app[0].localPort 1100
param **.sink_053.app[0].replyDelay 0s
param **.sink_054.numApps 1
param **.sink_054.app[0].typename "\"TcpGenericServerApp\""
param **.sink_054.app[0].localAddress "\"\""
param **.sink_054.app[0].localPort 1100
param **.sink_054.app[0].replyDelay 0s
param **.sink_055.numApps 1
param **.sink_055.app[0].typename "\"TcpGenericServerApp\""
param **.sink_055.app[0].localAddress "\"\""
param **.sink_055.app[0].localPort 1100
param **.sink_055.app[0].replyDelay 0s
param **.sink_056.numApps 1
param **.sink_056.app[0].typename "\"TcpGenericServerApp\""
param **.sink_056.app[0].localAddress "\"\""
param **.sink_056.app[0].localPort 1100
param **.sink_056.app[0].replyDelay 0s
param **.sink_057.numApps 1
param **.sink_057.app[0].typename "\"TcpGenericServerApp\""
param **.sink_057.app[0].localAddress "\"\""
param **.sink_057.app[0].localPort 1100
param **.sink_057.app[0].replyDelay 0s
param **.sink_058.numApps 1
param **.sink_058.app[0].typename "\"TcpGenericServerApp\""
param **.sink_058.app[0].localAddress "\"\""
param **.sink_058.app[0].localPort 1100
param **.sink_058.app[0].replyDelay 0s
param **.sink_059.numApps 1
param **.sink_059.app[0].typename "\"TcpGenericServerApp\""
param **.sink_059.app[0].localAddress "\"\""
param **.sink_059.app[0].localPort 1100
param **.sink_059.app[0].replyDelay 0s
param **.sink_060.numApps 1
param **.sink_060.app[0].typename "\"TcpGenericServerApp\""
param **.sink_060.app[0].localAddress "\"\""
param **.sink_060.app[0].localPort 1100
param **.sink_060.app[0].replyDelay 0s
param **.sink_061.numApps 1
param **.sink_061.app[0].typename "\"TcpGenericServerApp\""
param **.sink_061.app[0].localAddress "\"\""
param **.sink_061.app[0].localPort 1100
param **.sink_061.app[0].replyDelay 0s
param **.sink_062.numApps 1
param **.sink_062.app[0].typename "\"TcpGenericServerApp\""
param **.sink_062.app[0].localAddress "\"\""
param **.sink_062.app[0].localPort 1100
param **.sink_062.app[0].replyDelay 0s
param **.sink_063.numApps 1
param **.sink_063.app[0].typename "\"TcpGenericServerApp\""
param **.sink_063.app[0].localAddress "\"\""
param **.sink_063.app[0].localPort 1100
param **.sink_063.app[0].replyDelay 0s
param **.sink_064.numApps 1
param **.sink_064.app[0].typename "\"TcpGenericServerApp\""
param **.sink_064.app[0].localAddress "\"\""
param **.sink_064.app[0].localPort 1100
param **.sink_064.app[0].replyDelay 0s
param **.sink_065.numApps 1
param **.sink_065.app[0].typename "\"TcpGenericServerApp\""
param **.sink_065.app[0].localAddress "\"\""
param **.sink_065.app[0].localPort 1100
param **.sink_065.app[0].replyDelay 0s
param **.sink_066.numApps 1
param **.sink_066.app[0].typename "\"TcpGenericServerApp\""
param **.sink_066.app[0].localAddress "\"\""
param **.sink_066.app[0].localPort 1100
param **.sink_066.app[0].replyDelay 0s
param **.sink_067.numApps 1
param **.sink_067.app[0].typename "\"TcpGenericServerApp\""
param **.sink_067.app[0].localAddress "\"\""
param **.sink_067.app[0].localPort 1100
param **.sink_067.app[0].replyDelay 0s
param **.sink_068.numApps 1
param **.sink_068.app[0].typename "\"TcpGenericServerApp\""
param **.sink_068.app[0].localAddress "\"\""
param **.sink_068.app[0].localPort 1100
param **.sink_068.app[0].replyDelay 0s
param **.sink_069.numApps 1
param **.sink_069.app[0].typename "\"TcpGenericServerApp\""
param **.sink_069.app[0].localAddress "\"\""
param **.sink_069.app[0].localPort 1100
param **.sink_069.app[0].replyDelay 0s
param **.sink_070.numApps 1
param **.sink_070.app[0].typename "\"TcpGenericServerApp\""
param **.sink_070.app[0].localAddress "\"\""
param **.sink_070.app[0].localPort 1100
param **.sink_070.app[0].replyDelay 0s
param **.sink_071.numApps 1
param **.sink_071.app[0].typename "\"TcpGenericServerApp\""
param **.sink_071.app[0].localAddress "\"\""
param **.sink_071.app[0].localPort 1100
param **.sink_071.app[0].replyDelay 0s
param **.sink_072.numApps 1
param **.sink_072.app[0].typename "\"TcpGenericServerApp\""
param **.sink_072.app[0].localAddress "\"\""
param **.sink_072.app[0].localPort 1100
param **.sink_072.app[0].replyDelay 0s
param **.sink_073.numApps 1
param **.sink_073.app[0].typename "\"TcpGenericServerApp\""
param **.sink_073.app[0].localAddress "\"\""
param **.sink_073.app[0].localPort 1100
param **.sink_073.app[0].replyDelay 0s
param **.sink_074.numApps 1
param **.sink_074.app[0].typename "\"TcpGenericServerApp\""
param **.sink_074.app[0].localAddress "\"\""
param **.sink_074.app[0].localPort 1100
param **.sink_074.app[0].replyDelay 0s
param **.sink_075.numApps 1
param **.sink_075.app[0].typename "\"TcpGenericServerApp\""
param **.sink_075.app[0].localAddress "\"\""
param **.sink_075.app[0].localPort 1100
param **.sink_075.app[0].replyDelay 0s
param **.sink_076.numApps 1
param **.sink_076.app[0].typename "\"TcpGenericServerApp\""
param **.sink_076.app[0].localAddress "\"\""
param **.sink_076.app[0].localPort 1100
param **.sink_076.app[0].replyDelay 0s
param **.sink_077.numApps 1
param **.sink_077.app[0].typename "\"TcpGenericServerApp\""
param **.sink_077.app[0].localAddress "\"\""
param **.sink_077.app[0].localPort 1100
param **.sink_077.app[0].replyDelay 0s
param **.sink_078.numApps 1
param **.sink_078.app[0].typename "\"TcpGenericServerApp\""
param **.sink_078.app[0].localAddress "\"\""
param **.sink_078.app[0].localPort 1100
param **.sink_078.app[0].replyDelay 0s
param **.sink_079.numApps 1
param **.sink_079.app[0].typename "\"TcpGenericServerApp\""
param **.sink_079.app[0].localAddress "\"\""
param **.sink_079.app[0].localPort 1100
param **.sink_079.app[0].replyDelay 0s
param **.sink_080.numApps 1
param **.sink_080.app[0].typename "\"TcpGenericServerApp\""
param **.sink_080.app[0].localAddress "\"\""
param **.sink_080.app[0].localPort 1100
param **.sink_080.app[0].replyDelay 0s
param **.source_000.numApps 1
param **.source_000.app[0].typename "\"TcpBasicClientApp\""
param **.source_000.app[0].localAddress "\"\""
param **.source_000.app[0].connectAddress "\"sink_000\""
param **.source_000.app[0].connectPort 1100
param **.source_000.app[0].startTime 0s
param **.source_000.app[0].idleInterval 1000s
param **.source_000.app[0].requestLength 1300B
param **.source_000.app[0].replyLength 20B
param **.source_000.app[0].thinkTime 0s
param **.source_000.app[0].numRequestsPerSession 10
param **.source_001.numApps 1
param **.source_001.app[0].typename "\"TcpBasicClientApp\""
param **.source_001.app[0].localAddress "\"\""
param **.source_001.app[0].connectAddress "\"sink_001\""
param **.source_001.app[0].connectPort 1100
param **.source_001.app[0].startTime 0s
param **.source_001.app[0].idleInterval 1000s
param **.source_001.app[0].requestLength 1300B
param **.source_001.app[0].replyLength 20B
param **.source_001.app[0].thinkTime 0s
param **.source_001.app[0].numRequestsPerSession 95
param **.source_002.numApps 1
param **.source_002.app[0].typename "\"TcpBasicClientApp\""
param **.source_002.app[0].localAddress "\"\""
param **.source_002.app[0].connectAddress "\"sink_002\""
param **.source_002.app[0].connectPort 1100
param **.source_002.app[0].startTime 0s
param **.source_002.app[0].idleInterval 1000s
param **.source_002.app[0].requestLength 1300B
param **.source_002.app[0].replyLength 20B
param **.source_002.app[0].thinkTime 0s
param **.source_002.app[0].numRequestsPerSession 665
param **.source_003.numApps 1
param **.source_003.app[0].typename "\"TcpBasicClientApp\""
param **.source_003.app[0].localAddress "\"\""
param **.source_003.app[0].connectAddress "\"sink_003\""
param **.source_003.app[0].connectPort 1100
param **.source_003.app[0].startTime 0s
param **.source_003.app[0].idleInterval 1000s
param **.source_003.app[0].requestLength 1300B
param **.source_003.app[0].replyLength 20B
param **.source_003.app[0].thinkTime 0s
param **.source_003.app[0].numRequestsPerSession 412
param **.source_004.numApps 1
param **.source_004.app[0].typename "\"TcpBasicClientApp\""
param **.source_004.app[0].localAddress "\"\""
param **.source_004.app[0].connectAddress "\"sink_004\""
param **.source_004.app[0].connectPort 1100
param **.source_004.app[0].startTime 0s
param **.source_004.app[0].idleInterval 1000s
param **.source_004.app[0].requestLength 1300B
param **.source_004.app[0].replyLength 20B
param **.source_004.app[0].thinkTime 0s
param **.source_004.app[0].numRequestsPerSession 359
param **.source_005.numApps 1
param **.source_005.app[0].typename "\"TcpBasicClientApp\""
param **.source_005.app[0].localAddress "\"\""
param **.source_005.app[0].connectAddress "\"sink_005\""
param **.source_005.app[0].connectPort 1100
param **.source_005.app[0].startTime 0s
param **.source_005.app[0].idleInterval 1000s
param **.source_005.app[0].requestLength 1300B
param **.source_005.app[0].replyLength 20B
param **.source_005.app[0].thinkTime 0s
param **.source_005.app[0].numRequestsPerSession 48
param **.source_006.numApps 1
param **.source_006.app[0].typename "\"TcpBasicClientApp\""
param **.source_006.app[0].localAddress "\"\""
param **.source_006.app[0].connectAddress "\"sink_006\""
param **.source_006.app[0].connectPort 1100
param **.source_006.app[0].startTime 0s
param **.source_006.app[0].idleInterval 1000s
param **.source_006.app[0].requestLength 1300B
param **.source_006.app[0].replyLength 20B
param **.source_006.app[0].thinkTime 0s
param **.source_006.app[0].numRequestsPerSession 73
param **.source_007.numApps 1
param **.source_007.app[0].typename "\"TcpBasicClientApp\""
param **.source_007.app[0].localAddress "\"\""
param **.source_007.app[0].connectAddress "\"sink_007\""
param **.source_007.app[0].connectPort 1100
param **.source_007.app[0].startTime 0s
param **.source_007.app[0].idleInterval 1000s
param **.source_007.app[0].requestLength 1300B
param **.source_007.app[0].replyLength 20B
param **.source_007.app[0].thinkTime 0s
param **.source_007.app[0].numRequestsPerSession 635
param **.source_008.numApps 1
param **.source_008.app[0].typename "\"TcpBasicClientApp\""
param **.source_008.app[0].localAddress "\"\""
param **.source_008.app[0].connectAddress "\"sink_008\""
param **.source_008.app[0].connectPort 1100
param **.source_008.app[0].startTime 0s
param **.source_008.app[0].idleInterval 1000s
param **.source_008.app[0].requestLength 1300B
param **.source_008.app[0].replyLength 20B
param **.source_008.app[0].thinkTime 0s
param **.source_008.app[0].numRequestsPerSession 2
param **.source_009.numApps 1
param **.source_009.app[0].typename "\"TcpBasicClientApp\""
param **.source_009.app[0].localAddress "\"\""
param **.source_009.app[0].connectAddress "\"sink_009\""
param **.source_009.app[0].connectPort 1100
param **.source_009.app[0].startTime 0s
param **.source_009.app[0].idleInterval 1000s
param **.source_009.app[0].requestLength 1300B
param **.source_009.app[0].replyLength 20B
param **.source_009.app[0].thinkTime 0s
param **.source_009.app[0].numRequestsPerSession 4
param **.source_010.numApps 1
param **.source_010.app[0].typename "\"TcpBasicClientApp\""
param **.source_010.app[0].localAddress "\"\""
param **.source_010.app[0].connectAddress "\"sink_010\""
param **.source_010.app[0].connectPort 1100
param **.source_010.app[0].startTime 0s
param **.source_010.app[0].idleInterval 1000s
param **.source_010.app[0].requestLength 1300B
param **.source_010.app[0].replyLength 20B
param **.source_010.app[0].thinkTime 0s
param **.source_010.app[0].numRequestsPerSession 2
param **.source_011.numApps 1
param **.source_011.app[0].typename "\"TcpBasicClientApp\""
param **.source_011.app[0].localAddress "\"\""
param **.source_011.app[0].connectAddress "\"sink_011\""
param **.source_011.app[0].connectPort 1100
param **.source_011.app[0].startTime 0s
param **.source_011.app[0].idleInterval 1000s
param **.source_011.app[0].requestLength 1300B
param **.source_011.app[0].replyLength 20B
param **.source_011.app[0].thinkTime 0s
param **.source_011.app[0].numRequestsPerSession 8
param **.source_012.numApps 1
param **.source_012.app[0].typename "\"TcpBasicClientApp\""
param **.source_012.app[0].localAddress "\"\""
param **.source_012.app[0].connectAddress "\"sink_012\""
param **.source_012.app[0].connectPort 1100
param **.source_012.app[0].startTime 0s
param **.source_012.app[0].idleInterval 1000s
param **.source_012.app[0].requestLength 1300B
param **.source_012.app[0].replyLength 20B
param **.source_012.app[0].thinkTime 0s
param **.source_012.app[0].numRequestsPerSession 5
param **.source_013.numApps 1
param **.source_013.app[0].typename "\"TcpBasicClientApp\""
param **.source_013.app[0].localAddress "\"\""
param **.source_013.app[0].connectAddress "\"sink_013\""
param **.source_013.app[0].connectPort 1100
param **.source_013.app[0].startTime 0s
param **.source_013.app[0].idleInterval 1000s
param **.source_013.app[0].requestLength 1300B
param **.source_013.app[0].replyLength 20B
param **.source_013.app[0].thinkTime 0s
param **.source_013.app[0].numRequestsPerSession 7
param **.source_014.numApps 1
param **.source_014.app[0].typename "\"TcpBasicClientApp\""
param **.source_014.app[0].localAddress "\"\""
param **.source_014.app[0].connectAddress "\"sink_014\""
param **.source_014.app[0].connectPort 1100
param **.source_014.app[0].startTime 0s
param **.source_014.app[0].idleInterval 1000s
param **.source_014.app[0].requestLength 1300B
param **.source_014.app[0].replyLength 20B
param **.source_014.app[0].thinkTime 0s
param **.source_014.app[0].numRequestsPerSession 5
param **.source_015.numApps 1
param **.source_015.app[0].typename "\"TcpBasicClientApp\""
param **.source_015.app[0].localAddress "\"\""
param **.source_015.app[0].connectAddress "\"sink_015\""
param **.source_015.app[0].connectPort 1100
param **.source_015.app[0].startTime 0s
param **.source_015.app[0].idleInterval 1000s
param **.source_015.app[0].requestLength 1300B
param **.source_015.app[0].replyLength 20B
param **.source_015.app[0].thinkTime 0s
param **.source_015.app[0].numRequestsPerSession 171
param **.source_016.numApps 1
param **.source_016.app[0].typename "\"TcpBasicClientApp\""
param **.source_016.app[0].localAddress "\"\""
param **.source_016.app[0].connectAddress "\"sink_016\""
param **.source_016.app[0].connectPort 1100
param **.source_016.app[0].startTime 0s
param **.source_016.app[0].idleInterval 1000s
param **.source_016.app[0].requestLength 1300B
param **.source_016.app[0].replyLength 20B
param **.source_016.app[0].thinkTime 0s
param **.source_016.app[0].numRequestsPerSession 2
param **.source_017.numApps 1
param **.source_017.app[0].typename "\"TcpBasicClientApp\""
param **.source_017.app[0].localAddress "\"\""
param **.source_017.app[0].connectAddress "\"sink_017\""
param **.source_017.app[0].connectPort 1100
param **.source_017.app[0].startTime 0s
param **.source_017.app[0].idleInterval 1000s
param **.source_017.app[0].requestLength 1300B
param **.source_017.app[0].replyLength 20B
param **.source_017.app[0].thinkTime 0s
param **.source_017.app[0].numRequestsPerSession 6
param **.source_018.numApps 1
param **.source_018.app[0].typename "\"TcpBasicClientApp\""
param **.source_018.app[0].localAddress "\"\""
param **.source_018.app[0].connectAddress "\"sink_018\""
param **.source_018.app[0].connectPort 1100
param **.source_018.app[0].startTime 0s
param **.source_018.app[0].idleInterval 1000s
param **.source_018.app[0].requestLength 1300B
param **.source_018.app[0].replyLength 20B
param **.source_018.app[0].thinkTime 0s
param **.source_018.app[0].numRequestsPerSession 21
param **.source_019.numApps 1
param **.source_019.app[0].typename "\"TcpBasicClientApp\""
param **.source_019.app[0].localAddress "\"\""
param **.source_019.app[0].connectAddress "\"sink_019\""
param **.source_019.app[0].connectPort 1100
param **.source_019.app[0].startTime 0s
param **.source_019.app[0].idleInterval 1000s
param **.source_019.app[0].requestLength 1300B
param **.source_019.app[0].replyLength 20B
param **.source_019.app[0].thinkTime 0s
param **.source_019.app[0].numRequestsPerSession 3
param **.source_020.numApps 1
param **.source_020.app[0].typename "\"TcpBasicClientApp\""
param **.source_020.app[0].localAddress "\"\""
param **.source_020.app[0].connectAddress "\"sink_020\""
param **.source_020.app[0].connectPort 1100
param **.source_020.app[0].startTime 0s
param **.source_020.app[0].idleInterval 1000s
param **.source_020.app[0].requestLength 1300B
param **.source_020.app[0].replyLength 20B
param **.source_020.app[0].thinkTime 0s
param **.source_020.app[0].numRequestsPerSession 27
param **.source_021.numApps 1
param **.source_021.app[0].typename "\"TcpBasicClientApp\""
param **.source_021.app[0].localAddress "\"\""
param **.source_021.app[0].connectAddress "\"sink_021\""
param **.source_021.app[0].connectPort 1100
param **.source_021.app[0].startTime 0s
param **.source_021.app[0].idleInterval 1000s
param **.source_021.app[0].requestLength 1300B
param **.source_021.app[0].replyLength 20B
param **.source_021.app[0].thinkTime 0s
param **.source_021.app[0].numRequestsPerSession 113
param **.source_022.numApps 1
param **.source_022.app[0].typename "\"TcpBasicClientApp\""
param **.source_022.app[0].localAddress "\"\""
param **.source_022.app[0].connectAddress "\"sink_022\""
param **.source_022.app[0].connectPort 1100
param **.source_022.app[0].startTime 0s
param **.source_022.app[0].idleInterval 1000s
param **.source_022.app[0].requestLength 1300B
param **.source_022.app[0].replyLength 20B
param **.source_022.app[0].thinkTime 0s
param **.source_022.app[0].numRequestsPerSession 12
param **.source_023.numApps 1
param **.source_023.app[0].typename "\"TcpBasicClientApp\""
param **.source_023.app[0].localAddress "\"\""
param **.source_023.app[0].connectAddress "\"sink_023\""
param **.source_023.app[0].connectPort 1100
param **.source_023.app[0].startTime 0s
param **.source_023.app[0].idleInterval 1000s
param **.source_023.app[0].requestLength 1300B
param **.source_023.app[0].replyLength 20B
param **.source_023.app[0].thinkTime 0s
param **.source_023.app[0].numRequestsPerSession 2
param **.source_024.numApps 1
param **.source_024.app[0].typename "\"TcpBasicClientApp\""
param **.source_024.app[0].localAddress "\"\""
param **.source_024.app[0].connectAddress "\"sink_024\""
param **.source_024.app[0].connectPort 1100
param **.source_024.app[0].startTime 0s
param **.source_024.app[0].idleInterval 1000s
param **.source_024.app[0].requestLength 1300B
param **.source_024.app[0].replyLength 20B
param **.source_024.app[0].thinkTime 0s
param **.source_024.app[0].numRequestsPerSession 214
param **.source_025.numApps 1
param **.source_025.app[0].typename "\"TcpBasicClientApp\""
param **.source_025.app[0].localAddress "\"\""
param **.source_025.app[0].connectAddress "\"sink_025\""
param **.source_025.app[0].connectPort 1100
param **.source_025.app[0].startTime 0s
param **.source_025.app[0].idleInterval 1000s
param **.source_025.app[0].requestLength 1300B
param **.source_025.app[0].replyLength 20B
param **.source_025.app[0].thinkTime 0s
param **.source_025.app[0].numRequestsPerSession 5
param **.source_026.numApps 1
param **.source_026.app[0].typename "\"TcpBasicClientApp\""
param **.source_026.app[0].localAddress "\"\""
param **.source_026.app[0].connectAddress "\"sink_026\""
param **.source_026.app[0].connectPort 1100
param **.source_026.app[0].startTime 0s
param **.source_026.app[0].idleInterval 1000s
param **.source_026.app[0].requestLength 1300B
param **.source_026.app[0].replyLength 20B
param **.source_026.app[0].thinkTime 0s
param **.source_026.app[0].numRequestsPerSession 9
param **.source_027.numApps 1
param **.source_027.app[0].typename "\"TcpBasicClientApp\""
param **.source_027.app[0].localAddress "\"\""
param **.source_027.app[0].connectAddress "\"sink_027\""
param **.source_027.app[0].connectPort 1100
param **.source_027.app[0].startTime 0s
param **.source_027.app[0].idleInterval 1000s
param **.source_027.app[0].requestLength 1300B
param **.source_027.app[0].replyLength 20B
param **.source_027.app[0].thinkTime 0s
param **.source_027.app[0].numRequestsPerSession 12
param **.source_028.numApps 1
param **.source_028.app[0].typename "\"TcpBasicClientApp\""
param **.source_028.app[0].localAddress "\"\""
param **.source_028.app[0].connectAddress "\"sink_028\""
param **.source_028.app[0].connectPort 1100
param **.source_028.app[0].startTime 0s
param **.source_028.app[0].idleInterval 1000s
param **.source_028.app[0].requestLength 1300B
param **.source_028.app[0].replyLength 20B
param **.source_028.app[0].thinkTime 0s
param **.source_028.app[0].numRequestsPerSession 7
param **.source_029.numApps 1
param **.source_029.app[0].typename "\"TcpBasicClientApp\""
param **.source_029.app[0].localAddress "\"\""
param **.source_029.app[0].connectAddress "\"sink_029\""
param **.source_029.app[0].connectPort 1100
param **.source_029.app[0].startTime 0s
param **.source_029.app[0].idleInterval 1000s
param **.source_029.app[0].requestLength 1300B
param **.source_029.app[0].replyLength 20B
param **.source_029.app[0].thinkTime 0s
param **.source_029.app[0].numRequestsPerSession 3
param **.source_030.numApps 1
param **.source_030.app[0].typename "\"TcpBasicClientApp\""
param **.source_030.app[0].localAddress "\"\""
param **.source_030.app[0].connectAddress "\"sink_030\""
param **.source_030.app[0].connectPort 1100
param **.source_030.app[0].startTime 0s
param **.source_030.app[0].idleInterval 1000s
param **.source_030.app[0].requestLength 1300B
param **.source_030.app[0].replyLength 20B
param **.source_030.app[0].thinkTime 0s
param **.source_030.app[0].numRequestsPerSession 23
param **.source_031.numApps 1
param **.source_031.app[0].typename "\"TcpBasicClientApp\""
param **.source_031.app[0].localAddress "\"\""
param **.source_031.app[0].connectAddress "\"sink_031\""
param **.source_031.app[0].connectPort 1100
param **.source_031.app[0].startTime 0s
param **.source_031.app[0].idleInterval 1000s
param **.source_031.app[0].requestLength 1300B
param **.source_031.app[0].replyLength 20B
param **.source_031.app[0].thinkTime 0s
param **.source_031.app[0].numRequestsPerSession 3
param **.source_032.numApps 1
param **.source_032.app[0].typename "\"TcpBasicClientApp\""
param **.source_032.app[0].localAddress "\"\""
param **.source_032.app[0].connectAddress "\"sink_032\""
param **.source_032.app[0].connectPort 1100
param **.source_032.app[0].startTime 0s
param **.source_032.app[0].idleInterval 1000s
param **.source_032.app[0].requestLength 1300B
param **.source_032.app[0].replyLength 20B
param **.source_032.app[0].thinkTime 0s
param **.source_032.app[0].numRequestsPerSession 4
param **.source_033.numApps 1
param **.source_033.app[0].typename "\"TcpBasicClientApp\""
param **.source_033.app[0].localAddress "\"\""
param **.source_033.app[0].connectAddress "\"sink_033\""
param **.source_033.app[0].connectPort 1100
param **.source_033.app[0].startTime 0s
param **.source_033.app[0].idleInterval 1000s
param **.source_033.app[0].requestLength 1300B
param **.source_033.app[0].replyLength 20B
param **.source_033.app[0].thinkTime 0s
param **.source_033.app[0].numRequestsPerSession 1
param **.source_034.numApps 1
param **.source_034.app[0].typename "\"TcpBasicClientApp\""
param **.source_034.app[0].localAddress "\"\""
param **.source_034.app[0].connectAddress "\"sink_034\""
param **.source_034.app[0].connectPort 1100
param **.source_034.app[0].startTime 0s
param **.source_034.app[0].idleInterval 1000s
param **.source_034.app[0].requestLength 1300B
param **.source_034.app[0].replyLength 20B
param **.source_034.app[0].thinkTime 0s
param **.source_034.app[0].numRequestsPerSession 10
param **.source_035.numApps 1
param **.source_035.app[0].typename "\"TcpBasicClientApp\""
param **.source_035.app[0].localAddress "\"\""
param **.source_035.app[0].connectAddress "\"sink_035\""
param **.source_035.app[0].connectPort 1100
param **.source_035.app[0].startTime 0s
param **.source_035.app[0].idleInterval 1000s
param **.source_035.app[0].requestLength 1300B
param **.source_035.app[0].replyLength 20B
param **.source_035.app[0].thinkTime 0s
param **.source_035.app[0].numRequestsPerSession 11
param **.source_036.numApps 1
param **.source_036.app[0].typename "\"TcpBasicClientApp\""
param **.source_036.app[0].localAddress "\"\""
param **.source_036.app[0].connectAddress "\"sink_036\""
param **.source_036.app[0].connectPort 1100
param **.source_036.app[0].startTime 0s
param **.source_036.app[0].idleInterval 1000s
param **.source_036.app[0].requestLength 1300B
param **.source_036.app[0].replyLength 20B
param **.source_036.app[0].thinkTime 0s
param **.source_036.app[0].numRequestsPerSession 10
param **.source_037.numApps 1
param **.source_037.app[0].typename "\"TcpBasicClientApp\""
param **.source_037.app[0].localAddress "\"\""
param **.source_037.app[0].connectAddress "\"sink_037\""
param **.source_037.app[0].connectPort 1100
param **.source_037.app[0].startTime 0s
param **.source_037.app[0].idleInterval 1000s
param **.source_037.app[0].requestLength 1300B
param **.source_037.app[0].replyLength 20B
param **.source_037.app[0].thinkTime 0s
param **.source_037.app[0].numRequestsPerSession 6
param **.source_038.numApps 1
param **.source_038.app[0].typename "\"TcpBasicClientApp\""
param **.source_038.app[0].localAddress "\"\""
param **.source_038.app[0].connectAddress "\"sink_038\""
param **.source_038.app[0].connectPort 1100
param **.source_038.app[0].startTime 0s
param **.source_038.app[0].idleInterval 1000s
param **.source_038.app[0].requestLength 1300B
param **.source_038.app[0].replyLength 20B
param **.source_038.app[0].thinkTime 0s
param **.source_038.app[0].numRequestsPerSession 28
param **.source_039.numApps 1
param **.source_039.app[0].typename "\"TcpBasicClientApp\""
param **.source_039.app[0].localAddress "\"\""
param **.source_039.app[0].connectAddress "\"sink_039\""
param **.source_039.app[0].connectPort 1100
param **.source_039.app[0].startTime 0s
param **.source_039.app[0].idleInterval 1000s
param **.source_039.app[0].requestLength 1300B
param **.source_039.app[0].replyLength 20B
param **.source_039.app[0].thinkTime 0s
param **.source_039.app[0].numRequestsPerSession 63
param **.source_040.numApps 1
param **.source_040.app[0].typename "\"TcpBasicClientApp\""
param **.source_040.app[0].localAddress "\"\""
param **.source_040.app[0].connectAddress "\"sink_040\""
param **.source_040.app[0].connectPort 1100
param **.source_040.app[0].startTime 0s
param **.source_040.app[0].idleInterval 1000s
param **.source_040.app[0].requestLength 1300B
param **.source_040.app[0].replyLength 20B
param **.source_040.app[0].thinkTime 0s
param **.source_040.app[0].numRequestsPerSession 79
param **.source_041.numApps 1
param **.source_041.app[0].typename "\"TcpBasicClientApp\""
param **.source_041.app[0].localAddress "\"\""
param **.source_041.app[0].connectAddress "\"sink_041\""
param **.source_041.app[0].connectPort 1100
param **.source_041.app[0].startTime 0s
param **.source_041.app[0].idleInterval 1000s
param **.source_041.app[0].requestLength 1300B
param **.source_041.app[0].replyLength 20B
param **.source_041.app[0].thinkTime 0s
param **.source_041.app[0].numRequestsPerSession 107
param **.source_042.numApps 1
param **.source_042.app[0].typename "\"TcpBasicClientApp\""
param **.source_042.app[0].localAddress "\"\""
param **.source_042.app[0].connectAddress "\"sink_042\""
param **.source_042.app[0].connectPort 1100
param **.source_042.app[0].startTime 0s
param **.source_042.app[0].idleInterval 1000s
param **.source_042.app[0].requestLength 1300B
param **.source_042.app[0].replyLength 20B
param **.source_042.app[0].thinkTime 0s
param **.source_042.app[0].numRequestsPerSession 11
param **.source_043.numApps 1
param **.source_043.app[0].typename "\"TcpBasicClientApp\""
param **.source_043.app[0].localAddress "\"\""
param **.source_043.app[0].connectAddress "\"sink_043\""
param **.source_043.app[0].connectPort 1100
param **.source_043.app[0].startTime 0s
param **.source_043.app[0].idleInterval 1000s
param **.source_043.app[0].requestLength 1300B
param **.source_043.app[0].replyLength 20B
param **.source_043.app[0].thinkTime 0s
param **.source_043.app[0].numRequestsPerSession 276
param **.source_044.numApps 1
param **.source_044.app[0].typename "\"TcpBasicClientApp\""
param **.source_044.app[0].localAddress "\"\""
param **.source_044.app[0].connectAddress "\"sink_044\""
param **.source_044.app[0].connectPort 1100
param **.source_044.app[0].startTime 0s
param **.source_044.app[0].idleInterval 1000s
param **.source_044.app[0].requestLength 1300B
param **.source_044.app[0].replyLength 20B
param **.source_044.app[0].thinkTime 0s
param **.source_044.app[0].numRequestsPerSession 39
param **.source_045.numApps 1
param **.source_045.app[0].typename "\"TcpBasicClientApp\""
param **.source_045.app[0].localAddress "\"\""
param **.source_045.app[0].connectAddress "\"sink_045\""
param **.source_045.app[0].connectPort 1100
param **.source_045.app[0].startTime 0s
param **.source_045.app[0].idleInterval 1000s
param **.source_045.app[0].requestLength 1300B
param **.source_045.app[0].replyLength 20B
param **.source_045.app[0].thinkTime 0s
param **.source_045.app[0].numRequestsPerSession 2
param **.source_046.numApps 1
param **.source_046.app[0].typename "\"TcpBasicClientApp\""
param **.source_046.app[0].localAddress "\"\""
param **.source_046.app[0].connectAddress "\"sink_046\""
param **.source_046.app[0].connectPort 1100
param **.source_046.app[0].startTime 0s
param **.source_046.app[0].idleInterval 1000s
param **.source_046.app[0].requestLength 1300B
param **.source_046.app[0].replyLength 20B
param **.source_046.app[0].thinkTime 0s
param **.source_046.app[0].numRequestsPerSession 17
param **.source_047.numApps 1
param **.source_047.app[0].typename "\"TcpBasicClientApp\""
param **.source_047.app[0].localAddress "\"\""
param **.source_047.app[0].connectAddress "\"sink_047\""
param **.source_047.app[0].connectPort 1100
param **.source_047.app[0].startTime 0s
param **.source_047.app[0].idleInterval 1000s
param **.source_047.app[0].requestLength 1300B
param **.source_047.app[0].replyLength 20B
param **.source_047.app[0].thinkTime 0s
param **.source_047.app[0].numRequestsPerSession 130
param **.source_048.numApps 1
param **.source_048.app[0].typename "\"TcpBasicClientApp\""
param **.source_048.app[0].localAddress "\"\""
param **.source_048.app[0].connectAddress "\"sink_048\""
param **.source_048.app[0].connectPort 1100
param **.source_048.app[0].startTime 0s
param **.source_048.app[0].idleInterval 1000s
param **.source_048.app[0].requestLength 1300B
param **.source_048.app[0].replyLength 20B
param **.source_048.app[0].thinkTime 0s
param **.source_048.app[0].numRequestsPerSession 10
param **.source_049.numApps 1
param **.source_049.app[0].typename "\"TcpBasicClientApp\""
param **.source_049.app[0].localAddress "\"\""
param **.source_049.app[0].connectAddress "\"sink_049\""
param **.source_049.app[0].connectPort 1100
param **.source_049.app[0].startTime 0s
param **.source_049.app[0].idleInterval 1000s
param **.source_049.app[0].requestLength 1300B
param **.source_049.app[0].replyLength 20B
param **.source_049.app[0].thinkTime 0s
param **.source_049.app[0].numRequestsPerSession 105
param **.source_050.numApps 1
param **.source_050.app[0].typename "\"TcpBasicClientApp\""
param **.source_050.app[0].localAddress "\"\""
param **.source_050.app[0].connectAddress "\"sink_050\""
param **.source_050.app[0].connectPort 1100
param **.source_050.app[0].startTime 0s
param **.source_050.app[0].idleInterval 1000s
param **.source_050.app[0].requestLength 1300B
param **.source_050.app[0].replyLength 20B
param **.source_050.app[0].thinkTime 0s
param **.source_050.app[0].numRequestsPerSession 27
param **.source_051.numApps 1
param **.source_051.app[0].typename "\"TcpBasicClientApp\""
param **.source_051.app[0].localAddress "\"\""
param **.source_051.app[0].connectAddress "\"sink_051\""
param **.source_051.app[0].connectPort 1100
param **.source_051.app[0].startTime 0s
param **.source_051.app[0].idleInterval 1000s
param **.source_051.app[0].requestLength 1300B
param **.source_051.app[0].replyLength 20B
param **.source_051.app[0].thinkTime 0s
param **.source_051.app[0].numRequestsPerSession 49
param **.source_052.numApps 1
param **.source_052.app[0].typename "\"TcpBasicClientApp\""
param **.source_052.app[0].localAddress "\"\""
param **.source_052.app[0].connectAddress "\"sink_052\""
param **.source_052.app[0].connectPort 1100
param **.source_052.app[0].startTime 0s
param **.source_052.app[0].idleInterval 1000s
param **.source_052.app[0].requestLength 1300B
param **.source_052.app[0].replyLength 20B
param **.source_052.app[0].thinkTime 0s
param **.source_052.app[0].numRequestsPerSession 4
param **.source_053.numApps 1
param **.source_053.app[0].typename "\"TcpBasicClientApp\""
param **.source_053.app[0].localAddress "\"\""
param **.source_053.app[0].connectAddress "\"sink_053\""
param **.source_053.app[0].connectPort 1100
param **.source_053.app[0].startTime 0s
param **.source_053.app[0].idleInterval 1000s
param **.source_053.app[0].requestLength 1300B
param **.source_053.app[0].replyLength 20B
param **.source_053.app[0].thinkTime 0s
param **.source_053.app[0].numRequestsPerSession 19
param **.source_054.numApps 1
param **.source_054.app[0].typename "\"TcpBasicClientApp\""
param **.source_054.app[0].localAddress "\"\""
param **.source_054.app[0].connectAddress "\"sink_054\""
param **.source_054.app[0].connectPort 1100
param **.source_054.app[0].startTime 0s
param **.source_054.app[0].idleInterval 1000s
param **.source_054.app[0].requestLength 1300B
param **.source_054.app[0].replyLength 20B
param **.source_054.app[0].thinkTime 0s
param **.source_054.app[0].numRequestsPerSession 5
param **.source_055.numApps 1
param **.source_055.app[0].typename "\"TcpBasicClientApp\""
param **.source_055.app[0].localAddress "\"\""
param **.source_055.app[0].connectAddress "\"sink_055\""
param **.source_055.app[0].connectPort 1100
param **.source_055.app[0].startTime 0s
param **.source_055.app[0].idleInterval 1000s
param **.source_055.app[0].requestLength 1300B
param **.source_055.app[0].replyLength 20B
param **.source_055.app[0].thinkTime 0s
param **.source_055.app[0].numRequestsPerSession 668
param **.source_056.numApps 1
param **.source_056.app[0].typename "\"TcpBasicClientApp\""
param **.source_056.app[0].localAddress "\"\""
param **.source_056.app[0].connectAddress "\"sink_056\""
param **.source_056.app[0].connectPort 1100
param **.source_056.app[0].startTime 0s
param **.source_056.app[0].idleInterval 1000s
param **.source_056.app[0].requestLength 1300B
param **.source_056.app[0].replyLength 20B
param **.source_056.app[0].thinkTime 0s
param **.source_056.app[0].numRequestsPerSession 6
param **.source_057.numApps 1
param **.source_057.app[0].typename "\"TcpBasicClientApp\""
param **.source_057.app[0].localAddress "\"\""
param **.source_057.app[0].connectAddress "\"sink_057\""
param **.source_057.app[0].connectPort 1100
param **.source_057.app[0].startTime 0s
param **.source_057.app[0].idleInterval 1000s
param **.source_057.app[0].requestLength 1300B
param **.source_057.app[0].replyLength 20B
param **.source_057.app[0].thinkTime 0s
param **.source_057.app[0].numRequestsPerSession 11
param **.source_058.numApps 1
param **.source_058.app[0].typename "\"TcpBasicClientApp\""
param **.source_058.app[0].localAddress "\"\""
param **.source_058.app[0].connectAddress "\"sink_058\""
param **.source_058.app[0].connectPort 1100
param **.source_058.app[0].startTime 0s
param **.source_058.app[0].idleInterval 1000s
param **.source_058.app[0].requestLength 1300B
param **.source_058.app[0].replyLength 20B
param **.source_058.app[0].thinkTime 0s
param **.source_058.app[0].numRequestsPerSession 165
param **.source_059.numApps 1
param **.source_059.app[0].typename "\"TcpBasicClientApp\""
param **.source_059.app[0].localAddress "\"\""
param **.source_059.app[0].connectAddress "\"sink_059\""
param **.source_059.app[0].connectPort 1100
param **.source_059.app[0].startTime 0s
param **.source_059.app[0].idleInterval 1000s
param **.source_059.app[0].requestLength 1300B
param **.source_059.app[0].replyLength 20B
param **.source_059.app[0].thinkTime 0s
param **.source_059.app[0].numRequestsPerSession 10
param **.source_060.numApps 1
param **.source_060.app[0].typename "\"TcpBasicClientApp\""
param **.source_060.app[0].localAddress "\"\""
param **.source_060.app[0].connectAddress "\"sink_060\""
param **.source_060.app[0].connectPort 1100
param **.source_060.app[0].startTime 0s
param **.source_060.app[0].idleInterval 1000s
param **.source_060.app[0].requestLength 1300B
param **.source_060.app[0].replyLength 20B
param **.source_060.app[0].thinkTime 0s
param **.source_060.app[0].numRequestsPerSession 13
param **.source_061.numApps 1
param **.source_061.app[0].typename "\"TcpBasicClientApp\""
param **.source_061.app[0].localAddress "\"\""
param **.source_061.app[0].connectAddress "\"sink_061\""
param **.source_061.app[0].connectPort 1100
param **.source_061.app[0].startTime 0s
param **.source_061.app[0].idleInterval 1000s
param **.source_061.app[0].requestLength 1300B
param **.source_061.app[0].replyLength 20B
param **.source_061.app[0].thinkTime 0s
param **.source_061.app[0].numRequestsPerSession 21
param **.source_062.numApps 1
param **.source_062.app[0].typename "\"TcpBasicClientApp\""
param **.source_062.app[0].localAddress "\"\""
param **.source_062.app[0].connectAddress "\"sink_062\""
param **.source_062.app[0].connectPort 1100
param **.source_062.app[0].startTime 0s
param **.source_062.app[0].idleInterval 1000s
param **.source_062.app[0].requestLength 1300B
param **.source_062.app[0].replyLength 20B
param **.source_062.app[0].thinkTime 0s
param **.source_062.app[0].numRequestsPerSession 258
param **.source_063.numApps 1
param **.source_063.app[0].typename "\"TcpBasicClientApp\""
param **.source_063.app[0].localAddress "\"\""
param **.source_063.app[0].connectAddress "\"sink_063\""
param **.source_063.app[0].connectPort 1100
param **.source_063.app[0].startTime 0s
param **.source_063.app[0].idleInterval 1000s
param **.source_063.app[0].requestLength 1300B
param **.source_063.app[0].replyLength 20B
param **.source_063.app[0].thinkTime 0s
param **.source_063.app[0].numRequestsPerSession 18
param **.source_064.numApps 1
param **.source_064.app[0].typename "\"TcpBasicClientApp\""
param **.source_064.app[0].localAddress "\"\""
param **.source_064.app[0].connectAddress "\"sink_064\""
param **.source_064.app[0].connectPort 1100
param **.source_064.app[0].startTime 0s
param **.source_064.app[0].idleInterval 1000s
param **.source_064.app[0].requestLength 1300B
param **.source_064.app[0].replyLength 20B
param **.source_064.app[0].thinkTime 0s
param **.source_064.app[0].numRequestsPerSession 2
param **.source_065.numApps 1
param **.source_065.app[0].typename "\"TcpBasicClientApp\""
param **.source_065.app[0].localAddress "\"\""
param **.source_065.app[0].connectAddress "\"sink_065\""
param **.source_065.app[0].connectPort 1100
param **.source_065.app[0].startTime 0s
param **.source_065.app[0].idleInterval 1000s
param **.source_065.app[0].requestLength 1300B
param **.source_065.app[0].replyLength 20B
param **.source_065.app[0].thinkTime 0s
param **.source_065.app[0].numRequestsPerSession 66
param **.source_066.numApps 1
param **.source_066.app[0].typename "\"TcpBasicClientApp\""
param **.source_066.app[0].localAddress "\"\""
param **.source_066.app[0].connectAddress "\"sink_066\""
param **.source_066.app[0].connectPort 1100
param **.source_066.app[0].startTime 0s
param **.source_066.app[0].idleInterval 1000s
param **.source_066.app[0].requestLength 1300B
param **.source_066.app[0].replyLength 20B
param **.source_066.app[0].thinkTime 0s
param **.source_066.app[0].numRequestsPerSession 18
param **.source_067.numApps 1
param **.source_067.app[0].typename "\"TcpBasicClientApp\""
param **.source_067.app[0].localAddress "\"\""
param **.source_067.app[0].connectAddress "\"sink_067\""
param **.source_067.app[0].connectPort 1100
param **.source_067.app[0].startTime 0s
param **.source_067.app[0].idleInterval 1000s
param **.source_067.app[0].requestLength 1300B
param **.source_067.app[0].replyLength 20B
param **.source_067.app[0].thinkTime 0s
param **.source_067.app[0].numRequestsPerSession 1
param **.source_068.numApps 1
param **.source_068.app[0].typename "\"TcpBasicClientApp\""
param **.source_068.app[0].localAddress "\"\""
param **.source_068.app[0].connectAddress "\"sink_068\""
param **.source_068.app[0].connectPort 1100
param **.source_068.app[0].startTime 0s
param **.source_068.app[0].idleInterval 1000s
param **.source_068.app[0].requestLength 1300B
param **.source_068.app[0].replyLength 20B
param **.source_068.app[0].thinkTime 0s
param **.source_068.app[0].numRequestsPerSession 11
param **.source_069.numApps 1
param **.source_069.app[0].typename "\"TcpBasicClientApp\""
param **.source_069.app[0].localAddress "\"\""
param **.source_069.app[0].connectAddress "\"sink_069\""
param **.source_069.app[0].connectPort 1100
param **.source_069.app[0].startTime 0s
param **.source_069.app[0].idleInterval 1000s
param **.source_069.app[0].requestLength 1300B
param **.source_069.app[0].replyLength 20B
param **.source_069.app[0].thinkTime 0s
param **.source_069.app[0].numRequestsPerSession 8
param **.source_070.numApps 1
param **.source_070.app[0].typename "\"TcpBasicClientApp\""
param **.source_070.app[0].localAddress "\"\""
param **.source_070.app[0].connectAddress "\"sink_070\""
param **.source_070.app[0].connectPort 1100
param **.source_070.app[0].startTime 0s
param **.source_070.app[0].idleInterval 1000s
param **.source_070.app[0].requestLength 1300B
param **.source_070.app[0].replyLength 20B
param **.source_070.app[0].thinkTime 0s
param **.source_070.app[0].numRequestsPerSession 17
param **.source_071.numApps 1
param **.source_071.app[0].typename "\"TcpBasicClientApp\""
param **.source_071.app[0].localAddress "\"\""
param **.source_071.app[0].connectAddress "\"sink_071\""
param **.source_071.app[0].connectPort 1100
param **.source_071.app[0].startTime 0s
param **.source_071.app[0].idleInterval 1000s
param **.source_071.app[0].requestLength 1300B
param **.source_071.app[0].replyLength 20B
param **.source_071.app[0].thinkTime 0s
param **.source_071.app[0].numRequestsPerSession 19
param **.source_072.numApps 1
param **.source_072.app[0].typename "\"TcpBasicClientApp\""
param **.source_072.app[0].localAddress "\"\""
param **.source_072.app[0].connectAddress "\"sink_072\""
param **.source_072.app[0].connectPort 1100
param **.source_072.app[0].startTime 0s
param **.source_072.app[0].idleInterval 1000s
param **.source_072.app[0].requestLength 1300B
param **.source_072.app[0].replyLength 20B
param **.source_072.app[0].thinkTime 0s
param **.source_072.app[0].numRequestsPerSession 40
param **.source_073.numApps 1
param **.source_073.app[0].typename "\"TcpBasicClientApp\""
param **.source_073.app[0].localAddress "\"\""
param **.source_073.app[0].connectAddress "\"sink_073\""
param **.source_073.app[0].connectPort 1100
param **.source_073.app[0].startTime 0s
param **.source_073.app[0].idleInterval 1000s
param **.source_073.app[0].requestLength 1300B
param **.source_073.app[0].replyLength 20B
param **.source_073.app[0].thinkTime 0s
param **.source_073.app[0].numRequestsPerSession 8
param **.source_074.numApps 1
param **.source_074.app[0].typename "\"TcpBasicClientApp\""
param **.source_074.app[0].localAddress "\"\""
param **.source_074.app[0].connectAddress "\"sink_074\""
param **.source_074.app[0].connectPort 1100
param **.source_074.app[0].startTime 0s
param **.source_074.app[0].idleInterval 1000s
param **.source_074.app[0].requestLength 1300B
param **.source_074.app[0].replyLength 20B
param **.source_074.app[0].thinkTime 0s
param **.source_074.app[0].numRequestsPerSession 1
param **.source_075.numApps 1
param **.source_075.app[0].typename "\"TcpBasicClientApp\""
param **.source_075.app[0].localAddress "\"\""
param **.source_075.app[0].connectAddress "\"sink_075\""
param **.source_075.app[0].connectPort 1100
param **.source_075.app[0].startTime 0s
param **.source_075.app[0].idleInterval 1000s
param **.source_075.app[0].requestLength 1300B
param **.source_075.app[0].replyLength 20B
param **.source_075.app[0].thinkTime 0s
param **.source_075.app[0].numRequestsPerSession 25
param **.source_076.numApps 1
param **.source_076.app[0].typename "\"TcpBasicClientApp\""
param **.source_076.app[0].localAddress "\"\""
param **.source_076.app[0].connectAddress "\"sink_076\""
param **.source_076.app[0].connectPort 1100
param **.source_076.app[0].startTime 0s
param **.source_076.app[0].idleInterval 1000s
param **.source_076.app[0].requestLength 1300B
param **.source_076.app[0].replyLength 20B
param **.source_076.app[0].thinkTime 0s
param **.source_076.app[0].numRequestsPerSession 3
param **.source_077.numApps 1
param **.source_077.app[0].typename "\"TcpBasicClientApp\""
param **.source_077.app[0].localAddress "\"\""
param **.source_077.app[0].connectAddress "\"sink_077\""
param **.source_077.app[0].connectPort 1100
param **.source_077.app[0].startTime 0s
param **.source_077.app[0].idleInterval 1000s
param **.source_077.app[0].requestLength 1300B
param **.source_077.app[0].replyLength 20B
param **.source_077.app[0].thinkTime 0s
param **.source_077.app[0].numRequestsPerSession 57
param **.source_078.numApps 1
param **.source_078.app[0].typename "\"TcpBasicClientApp\""
param **.source_078.app[0].localAddress "\"\""
param **.source_078.app[0].connectAddress "\"sink_078\""
param **.source_078.app[0].connectPort 1100
param **.source_078.app[0].startTime 0s
param **.source_078.app[0].idleInterval 1000s
param **.source_078.app[0].requestLength 1300B
param **.source_078.app[0].replyLength 20B
param **.source_078.app[0].thinkTime 0s
param **.source_078.app[0].numRequestsPerSession 109
param **.source_079.numApps 1
param **.source_079.app[0].typename "\"TcpBasicClientApp\""
param **.source_079.app[0].localAddress "\"\""
param **.source_079.app[0].connectAddress "\"sink_079\""
param **.source_079.app[0].connectPort 1100
param **.source_079.app[0].startTime 0s
param **.source_079.app[0].idleInterval 1000s
param **.source_079.app[0].requestLength 1300B
param **.source_079.app[0].replyLength 20B
param **.source_079.app[0].thinkTime 0s
param **.source_079.app[0].numRequestsPerSession 10
param **.source_080.numApps 1
param **.source_080.app[0].typename "\"TcpBasicClientApp\""
param **.source_080.app[0].localAddress "\"\""
param **.source_080.app[0].connectAddress "\"sink_080\""
param **.source_080.app[0].connectPort 1100
param **.source_080.app[0].startTime 0s
param **.source_080.app[0].idleInterval 1000s
param **.source_080.app[0].requestLength 1300B
param **.source_080.app[0].replyLength 20B
param **.source_080.app[0].thinkTime 0s
param **.source_080.app[0].numRequestsPerSession 652
param **.tcp.mss 1400
param **.tcp.tcpAlgorithmClass "\"TcpReno\""
param **.tcp.crcMode "\"computed\""
param **.app[*].dataTransferMode "\"object\""

statistic FatTree_4__fvj_dc_traffic_baseline_seed8.sink_000.app[0] endToEndDelay:histogram
field count 10
field mean 0.0058384
field stddev 1.0751744044772e-05
field min 0.005835
field max 0.005869
field sum 0.058384
field sqrsum 0.000340870186
attr interpolationmode none
attr source dataAge(packetReceived)
attr title "end-to-end delay, histogram"
attr unit s
bin	-inf	0
bin	0.005826	0
bin	0.005827	0
bin	0.005828	0
bin	0.005829	0
bin	0.00583	0
bin	0.005831	0
bin	0.005832	0
bin	0.005833	0
bin	0.005834	9
bin	0.005835	0
bin	0.005836	0
bin	0.005837	0
bin	0.005838	0
bin	0.005839	0
bin	0.00584	0
bin	0.005841	0
bin	0.005842	0
bin	0.005843	0
bin	0.005844	0
bin	0.005845	0
bin	0.005846	0
bin	0.005847	0
bin	0.005848	0
bin	0.005849	0
bin	0.00585	0
bin	0.005851	0
bin	0.005852	0
bin	0.005853	0
bin	0.005854	0
bin	0.005855	0
bin	0.005856	0
bin	0.005857	0
bin	0.005858	0
bin	0.005859	0
bin	0.00586	0
bin	0.005861	0
bin	0.005862	0
bin	0.005863	0
bin	0.005864	0
bin	0.005865	0
bin	0.005866	0
bin	0.005867	0
bin	0.005868	1
bin	0.005869	0
bin	0.00587	0
bin	0.005871	0
bin	0.005872	0
bin	0.005873	0
bin	0.005874	0
bin	0.005875	0
bin	0.005876	0
bin	0.005877	0
bin	0.005878	0
statistic FatTree_4__fvj_dc_traffic_baseline_seed8.sink_000.app[0] endToEndDelay:weightedHistogram
field count 10
field mean 0.0058384
field stddev 1.0751744045575e-05
field min 0.005835
field max 0.005869
field weights 104000
field weightedSum 607.1936
field sqrSumWeights 1081600000
field weightedSqrSum 3.5450499344
attr interpolationmode none
attr source dataAge(packetReceived)
attr title "end-to-end delay, weightedHistogram"
attr unit s
bin	-inf	0
bin	0.005826	0
bin	0.005827	0
bin	0.005828	0
bin	0.005829	0
bin	0.00583	0
bin	0.005831	0
bin	0.005832	0
bin	0.005833	0
bin	0.005834	93600
bin	0.005835	0
bin	0.005836	0
bin	0.005837	0
bin	0.005838	0
bin	0.005839	0
bin	0.00584	0
bin	0.005841	0
bin	0.005842	0
bin	0.005843	0
bin	0.005844	0
bin	0.005845	0
bin	0.005846	0
bin	0.005847	0
bin	0.005848	0
bin	0.005849	0
bin	0.00585	0
bin	0.005851	0
bin	0.005852	0
bin	0.005853	0
bin	0.005854	0
bin	0.005855	0
bin	0.005856	0
bin	0.005857	0
bin	0.005858	0
bin	0.005859	0
bin	0.00586	0
bin	0.005861	0
bin	0.005862	0
bin	0.005863	0
bin	0.005864	0
bin	0.005865	0
bin	0.005866	0
bin	0.005867	0
bin	0.005868	10400
bin	0.005869	0
bin	0.00587	0
bin	0.005871	0
bin	0.005872	0
bin	0.005873	0
bin	0.005874	0
bin	0.005875	0
bin	0.005876	0
bin	0.005877	0
bin	0.005878	0
statistic FatTree_4__fvj_dc_traffic_baseline_seed8.sink_001.app[0] endToEndDelay:histogram
field count 95
field mean 0.0059189052631579
field stddev 0.00028322869015958
field min 0.005835
field max 0.007229
field sum 0.562296
field sqrsum 0.003335717292
attr interpolationmode none
attr source dataAge(packetReceived)
attr title "end-to-end delay, histogram"
attr unit s
bin	-inf	0
bin	0.00548	0
bin	0.0055	0
bin	0.00552	0
bin	0.00554	0
bin	0.00556	0
bin	0.00558	0
bin	0.0056	0
bin	0.00562	0
bin	0.00564	0
bin	0.00566	0
bin	0.00568	0
bin	0.0057	0
bin	0.00572	0
bin	0.00574	0
bin	0.00576	0
bin	0.00578	0
bin	0.0058	0
bin	0.00582	82
bin	0.00584	2
bin	0.00586	0
bin	0.00588	1
bin	0.0059	0
bin	0.00592	0
bin	0.00594	1
bin	0.00596	0
bin	0.00598	0
bin	0.006	0
bin	0.00602	0
bin	0.00604	0
bin	0.00606	0
bin	0.00608	0
bin	0.0061	0
bin	0.00612	0
bin	0.00614	0
bin	0.00616	0
bin	0.00618	0
bin	0.0062	2
bin	0.00622	0
bin	0.00624	0
bin	0.00626	1
bin	0.00628	0
bin	0.0063	0
bin	0.00632	0
bin	0.00634	0
bin	0.00636	0
bin	0.00638	1
bin	0.0064	0
bin	0.00642	0
bin	0.00644	0
bin	0.00646	0
bin	0.00648	0
bin	0.0065	0
bin	0.00652	0
bin	0.00654	0
bin	0.00656	0
bin	0.00658	0
bin	0.0066	0
bin	0.00662	0
bin	0.00664	0
bin	0.00666	0
bin	0.00668	0
bin	0.0067	0
bin	0.00672	0
bin	0.00674	0
bin	0.00676	0
bin	0.00678	0
bin	0.0068	1
bin	0.00682	0
bin	0.00684	0
bin	0.00686	1
bin	0.00688	0
bin	0.0069	0
bin	0.00692	0
bin	0.00694	0
bin	0.00696	0
bin	0.00698	0
bin	0.007	0
bin	0.00702	0
bin	0.00704	0
bin	0.00706	0
bin	0.00708	0
bin	0.0071	1
bin	0.00712	0
bin	0.00714	0
bin	0.00716	1
bin	0.00718	0
bin	0.0072	0
bin	0.00722	1
bin	0.00724	0
bin	0.00726	0
bin	0.00728	0
bin	0.0073	0
bin	0.00732	0
bin	0.00734	0
bin	0.00736	0
bin	0.00738	0
bin	0.0074	0
bin	0.00742	0
bin	0.00744	0
bin	0.00746	0
bin	0.00748	0
bin	0.0075	0
bin	0.00752	0
bin	0.00754	0
bin	0.00756	0
bin	0.00758	0
statistic FatTree_4__fvj_dc_traffic_baseline_seed8.sink_001.app[0] endToEndDelay:weightedHistogram
field count 95
field mean 0.0059189052631579
field stddev 0.00028322869015934
field min 0.005835
field max 0.007229
field weights 988000
field weightedSum 5847.8784
field sqrSumWeights 10275200000
field weightedSqrSum 34.6914598368
attr interpolationmode none
attr source dataAge(packetReceived)
attr title "end-to-end delay, weightedHistogram"
attr unit s
bin	-inf	0
bin	0.00548	0
bin	0.0055	0
bin	0.00552	0
bin	0.00554	0
bin	0.00556	0
bin	0.00558	0
bin	0.0056	0
bin	0.00562	0
bin	0.00564	0
bin	0.00566	0
bin	0.00568	0
bin	0.0057	0
bin	0.00572	0
bin	0.00574	0
bin	0.00576	0
bin	0.00578	0
bin	0.0058	0
bin	0.00582	852800
bin	0.00584	20800
bin	0.00586	0
bin	0.00588	10400
bin	0.0059	0
bin	0.00592	0
bin	0.00594	10400
bin	0.00596	0
bin	0.00598	0
bin	0.006	0
bin	0.00602	0
bin	0.00604	0
bin	0.00606	0
bin	0.00608	0
bin	0.0061	0
bin	0.00612	0
bin	0.00614	0
bin	0.00616	0
bin	0.00618	0
bin	0.0062	20800
bin	0.00622	0
bin	0.00624	0
bin	0.00626	10400
bin	0.00628	0
bin	0.0063	0
bin	0.00632	0
bin	0.00634	0
bin	0.00636	0
bin	0.00638	10400
bin	0.0064	0
bin	0.00642	0
bin	0.00644	0
bin	0.00646	0
bin	0.00648	0
bin	0.0065	0
bin	0.00652	0
bin	0.00654	0
bin	0.00656	0
bin	0.00658	0
bin	0.0066	0
bin	0.00662	0
bin	0.00664	0
bin	0.00666	0
bin	0.00668	0
bin	0.0067	0
bin	0.00672	0
bin	0.00674	0
bin	0.00676	0
bin	0.00678	0
bin	0.0068	10400
bin	0.00682	0
bin	0.00684	0
bin	0.00686	10400
bin	0.00688	0
bin	0.0069	0
bin	0.00692	0
bin	0.00694	0
bin	0.00696	0
bin	0.00698	0
bin	0.007	0
bin	0.00702	0
bin	0.00704	0
bin	0.00706	0
bin	0.00708	0
bin	0.0071	10400
bin	0.00712	0
bin	0.00714	0
bin	0.00716	10400
bin	0.00718	0
bin	0.0072	0
bin	0.00722	10400
bin	0.00724	0
bin	0.00726	0
bin	0.00728	0
bin	0.0073	0
bin	0.00732	0
bin	0.00734	0
bin	0.00736	0
bin	0.00738	0
bin	0.0074	0
bin	0.00742	0
bin	0.00744	0
bin	0.00746	0
bin	0.00748	0
bin	0.0075	0
bin	0.00752	0
bin	0.00754	0
bin	0.00756	0
bin	0.00758	0
statistic FatTree_4__fvj_dc_traffic_baseline_seed8.sink_002.app[0] endToEndDelay:histogram
field count 665
field mean 0.0058401969924811
field stddev 0.00010412170817102
field min 0.005835
field max 0.00847
field sum 3.8837309999999
field sqrsum 0.022688952749
attr interpolationmode none
attr source dataAge(packetReceived)
attr title "end-to-end delay, histogram"
attr unit s
bin	-inf	0
bin	0.00515	0
bin	0.0052	0
bin	0.00525	0
bin	0.0053	0
bin	0.00535	0
bin	0.0054	0
bin	0.00545	0
bin	0.0055	0
bin	0.00555	0
bin	0.0056	0
bin	0.00565	0
bin	0.0057	0
bin	0.00575	0
bin	0.0058	659
bin	0.00585	3
bin	0.0059	0
bin	0.00595	0
bin	0.006	0
bin	0.00605	0
bin	0.0061	1
bin	0.00615	0
bin	0.0062	0
bin	0.00625	1
bin	0.0063	0
bin	0.00635	0
bin	0.0064	0
bin	0.00645	0
bin	0.0065	0
bin	0.00655	0
bin	0.0066	0
bin	0.00665	0
bin	0.0067	0
bin	0.00675	0
bin	0.0068	0
bin	0.00685	0
bin	0.0069	0
bin	0.00695	0
bin	0.007	0
bin	0.00705	0
bin	0.0071	0
bin	0.00715	0
bin	0.0072	0
bin	0.00725	0
bin	0.0073	0
bin	0.00735	0
bin	0.0074	0
bin	0.00745	0
bin	0.0075	0
bin	0.00755	0
bin	0.0076	0
bin	0.00765	0
bin	0.0077	0
bin	0.00775	0
bin	0.0078	0
bin	0.00785	0
bin	0.0079	0
bin	0.00795	0
bin	0.008	0
bin	0.00805	0
bin	0.0081	0
bin	0.00815	0
bin	0.0082	0
bin	0.00825	0
bin	0.0083	0
bin	0.00835	0
bin	0.0084	0
bin	0.00845	1
bin	0.0085	0
bin	0.00855	0
bin	0.0086	0
bin	0.00865	0
bin	0.0087	0
bin	0.00875	0
bin	0.0088	0
bin	0.00885	0
bin	0.0089	0
bin	0.00895	0
bin	0.009	0
bin	0.00905	0
bin	0.0091	0
bin	0.00915	0
statistic FatTree_4__fvj_dc_traffic_baseline_seed8.sink_002.app[0] endToEndDelay:weightedHistogram
field count 665
field mean 0.0058401969924813
field stddev 0.00010412170816434
field min 0.005835
field max 0.00847
field weights 6916000
field weightedSum 40390.8024
field sqrSumWeights 71926400000
field weightedSqrSum 235.9651085896
attr interpolationmode none
attr source dataAge(packetReceived)
attr title "end-to-end delay, weightedHistogram"
attr unit s
bin	-inf	0
bin	0.00515	0
bin	0.0052	0
bin	0.00525	0
bin	0.0053	0
bin	0.00535	0
bin	0.0054	0
bin	0.00545	0
bin	0.0055	0
bin	0.00555	0
bin	0.0056	0
bin	0.00565	0
bin	0.0057	0
bin	0.00575	0
bin	0.0058	6853600
bin	0.00585	31200
bin	0.0059	0
bin	0.00595	0
bin	0.006	0
bin	0.00605	0
bin	0.0061	10400
bin	0.00615	0
bin	0.0062	0
bin	0.00625	10400
bin	0.0063	0
bin	0.00635	0
bin	0.0064	0
bin	0.00645	0
bin	0.0065	0
bin	0.00655	0
bin	0.0066	0
bin	0.00665	0
bin	0.0067	0
bin	0.00675	0
bin	0.0068	0
bin	0.00685	0
bin	0.0069	0
bin	0.00695	0
bin	0.007	0
bin	0.00705	0
bin	0.0071	0
bin	0.00715	0
bin	0.0072	0
bin	0.00725	0
bin	0.0073	0
bin	0.00735	0
bin	0.0074	0
bin	0.00745	0
bin	0.0075	0
bin	0.00755	0
bin	0.0076	0
bin	0.00765	0
bin	0.0077	0
bin	0.00775	0
bin	0.0078	0
bin	0.00785	0
bin	0.0079	0
bin	0.00795	0
bin	0.008	0
bin	0.00805	0
bin	0.0081	0
bin	0.00815	0
bin	0.0082	0
bin	0.00825	0
bin	0.0083	0
bin	0.00835	0
bin	0.0084	0
bin	0.00845	10400
bin	0.0085	0
bin	0.00855	0
bin	0.0086	0
bin	0.00865	0
bin	0.0087	0
bin	0.00875	0
bin	0.0088	0
bin	0.00885	0
bin	0.0089	0
bin	0.00895	0
bin	0.009	0
bin	0.00905	0
bin	0.0091	0
bin	0.00915	0
statistic FatTree_4__fvj_dc_traffic_baseline_seed8.sink_003.app[0] endToEndDelay:histogram
field count 412
field mean 0.0087826480582525
field stddev 0.00023457344404842
field min 0.008729
field max 0.011034
field sum 3.618451
field sqrsum 0.031802196801
attr interpolationmode none
attr source dataAge(packetReceived)
attr title "end-to-end delay, histogram"
attr unit s
bin	-inf	0
bin	0.00815	0
bin	0.0082	0
bin	0.00825	0
bin	0.0083	0
bin	0.00835	0
bin	0.0084	0
bin	0.00845	0
bin	0.0085	0
bin	0.00855	0
bin	0.0086	0
bin	0.00865	0
bin	0.0087	324
bin	0.00875	6
bin	0.0088	70
bin	0.00885	0
bin	0.0089	0
bin	0.00895	0
bin	0.009	0
bin	0.00905	0
bin	0.0091	0
bin	0.00915	1
bin	0.0092	0
bin	0.00925	0
bin	0.0093	1
bin	0.00935	0
bin	0.0094	0
bin	0.00945	0
bin	0.0095	2
bin	0.00955	0
bin	0.0096	0
bin	0.00965	0
bin	0.0097	0
bin	0.00975	0
bin	0.0098	0
bin	0.00985	0
bin	0.0099	2
bin	0.00995	1
bin	0.01	2
bin	0.01005	0
bin	0.0101	0
bin	0.01015	0
bin	0.0102	0
bin	0.01025	0
bin	0.0103	0
bin	0.01035	0
bin	0.0104	0
bin	0.01045	1
bin	0.0105	0
bin	0.01055	0
bin	0.0106	0
bin	0.01065	0
bin	0.0107	0
bin	0.01075	0
bin	0.0108	0
bin	0.01085	0
bin	0.0109	0
bin	0.01095	1
bin	0.011	1
bin	0.01105	0
bin	0.0111	0
bin	0.01115	0
bin	0.0112	0
bin	0.01125	0
bin	0.0113	0
bin	0.01135	0
bin	0.0114	0
bin	0.01145	0
bin	0.0115	0
bin	0.01155	0
bin	0.0116	0
bin	0.01165	0
statistic FatTree_4__fvj_dc_traffic_baseline_seed8.sink_003.app[0] endToEndDelay:weightedHistogram
field count 412
field mean 0.0087826480582524
field stddev 0.00023457344404988
field min 0.008729
field max 0.011034
field weights 4284800
field weightedSum 37631.8904
field sqrSumWeights 44561920000
field weightedSqrSum 330.7428467304
attr interpolationmode none
attr source dataAge(packetReceived)
attr title "end-to-end delay, weightedHistogram"
attr unit s
bin	-inf	0
bin	0.00815	0
bin	0.0082	0
bin	0.00825	0
bin	0.0083	0
bin	0.00835	0
bin	0.0084	0
bin	0.00845	0
bin	0.0085	0
bin	0.00855	0
bin	0.0086	0
bin	0.00865	0
bin	0.0087	3369600
bin	0.00875	62400
bin	0.0088	728000
bin	0.00885	0
bin	0.0089	0
bin	0.00895	0
bin	0.009	0
bin	0.00905	0
bin	0.0091	0
bin	0.00915	10400
bin	0.0092	0
bin	0.00925	0
bin	0.0093	10400
bin	0.00935	0
bin	0.0094	0
bin	0.00945	0
bin	0.0095	20800
bin	0.00955	0
bin	0.0096	0
bin	0.00965	0
bin	0.0097	0
bin	0.00975	0
bin	0.0098	0
bin	0.00985	0
bin	0.0099	20800
bin	0.00995	10400
bin	0.01	20800
bin	0.01005	0
bin	0.0101	0
bin	0.01015	0
bin	0.0102	0
bin	0.01025	0
bin	0.0103	0
bin	0.01035	0
bin	0.0104	0
bin	0.01045	10400
bin	0.0105	0
bin	0.01055	0
bin	0.0106	0
bin	0.01065	0
bin	0.0107	0
bin	0.01075	0
bin	0.0108	0
bin	0.01085	0
bin	0.0109	0
bin	0.01095	10400
bin	0.011	10400
bin	0.01105	0
bin	0.0111	0
bin	0.01115	0
bin	0.0112	0
bin	0.01125	0
bin	0.0113	0
bin	0.01135	0
bin	0.0114	0
bin	0.01145	0
bin	0.0115	0
bin	0.01155	0
bin	0.0116	0
bin	0.01165	0
statistic FatTree_4__fvj_dc_traffic_baseline_seed8.sink_004.app[0] endToEndDelay:histogram
field count 359
field mean 0.0087604679665739
field stddev 0.00017992749456369
field min 0.008729
field max 0.01006
field sum 3.145008
field sqrsum 0.027563331696
attr interpolationmode none
attr source dataAge(packetReceived)
attr title "end-to-end delay, histogram"
attr unit s
bin	-inf	0
bin	0.00838	0
bin	0.0084	0
bin	0.00842	0
bin	0.00844	0
bin	0.00846	0
bin	0.00848	0
bin	0.0085	0
bin	0.00852	0
bin	0.00854	0
bin	0.00856	0
bin	0.00858	0
bin	0.0086	0
bin	0.00862	0
bin	0.00864	0
bin	0.00866	0
bin	0.00868	0
bin	0.0087	0
bin	0.00872	344
bin	0.00874	0
bin	0.00876	1
bin	0.00878	1
bin	0.0088	0
bin	0.00882	0
bin	0.00884	1
bin	0.00886	1
bin	0.00888	0
bin	0.0089	0
bin	0.00892	0
bin	0.00894	0
bin	0.00896	0
bin	0.00898	0
bin	0.009	0
bin	0.00902	0
bin	0.00904	0
bin	0.00906	0
bin	0.00908	0
bin	0.0091	1
bin	0.00912	0
bin	0.00914	0
bin	0.00916	0
bin	0.00918	0
bin	0.0092	0
bin	0.00922	0
bin	0.00924	0
bin	0.00926	0
bin	0.00928	0
bin	0.0093	1
bin	0.00932	0
bin	0.00934	0
bin	0.00936	0
bin	0.00938	0
bin	0.0094	0
bin	0.00942	0
bin	0.00944	0
bin	0.00946	0
bin	0.00948	0
bin	0.0095	1
bin	0.00952	0
bin	0.00954	1
bin	0.00956	0
bin	0.00958	0
bin	0.0096	0
bin	0.00962	0
bin	0.00964	0
bin	0.00966	1
bin	0.00968	0
bin	0.0097	0
bin	0.00972	0
bin	0.00974	0
bin	0.00976	1
bin	0.00978	0
bin	0.0098	0
bin	0.00982	0
bin	0.00984	0
bin	0.00986	1
bin	0.00988	0
bin	0.0099	0
bin	0.00992	0
bin	0.00994	0
bin	0.00996	0
bin	0.00998	0
bin	0.01	0
bin	0.01002	3
bin	0.01004	0
bin	0.01006	1
bin	0.01008	0
bin	0.0101	0
bin	0.01012	0
bin	0.01014	0
bin	0.01016	0
bin	0.01018	0
bin	0.0102	0
bin	0.01022	0
bin	0.01024	0
bin	0.01026	0
bin	0.01028	0
bin	0.0103	0
bin	0.01032	0
bin	0.01034	0
bin	0.01036	0
bin	0.01038	0
bin	0.0104	0
statistic FatTree_4__fvj_dc_traffic_baseline_seed8.sink_004.app[0] endToEndDelay:weightedHistogram
field count 359
field mean 0.0087604679665737
field stddev 0.00017992749456877
field min 0.008729
field max 0.01006
field weights 3733600
field weightedSum 32708.0832
field sqrSumWeights 38829440000
field weightedSqrSum 286.6586496384
attr interpolationmode none
attr source dataAge(packetReceived)
attr title "end-to-end delay, weightedHistogram"
attr unit s
bin	-inf	0
bin	0.00838	0
bin	0.0084	0
bin	0.00842	0
bin	0.00844	0
bin	0.00846	0
bin	0.00848	0
bin	0.0085	0
bin	0.00852	0
bin	0.00854	0
bin	0.00856	0
bin	0.00858	0
bin	0.0086	0
bin	0.00862	0
bin	0.00864	0
bin	0.00866	0
bin	0.00868	0
bin	0.0087	0
bin	0.00872	3577600
bin	0.00874	0
bin	0.00876	10400
bin	0.00878	10400
bin	0.0088	0
bin	0.00882	0
bin	0.00884	10400
bin	0.00886	10400
bin	0.00888	0
bin	0.0089	0
bin	0.00892	0
bin	0.00894	0
bin	0.00896	0
bin	0.00898	0
bin	0.009	0
bin	0.00902	0
bin	0.00904	0
bin	0.00906	0
bin	0.00908	0
bin	0.0091	10400
bin	0.00912	0
bin	0.00914	0
bin	0.00916	0
bin	0.00918	0
bin	0.0092	0
bin	0.00922	0
bin	0.00924	0
bin	0.00926	0
bin	0.00928	0
bin	0.0093	10400
bin	0.00932	0
bin	0.00934	0
bin	0.00936	0
bin	0.00938	0
bin	0.0094	0
bin	0.00942	0
bin	0.00944	0
bin	0.00946	0
bin	0.00948	0
bin	0.0095	10400
bin	0.00952	0
bin	0.00954	10400
bin	0.00956	0
bin	0.00958	0
bin	0.0096	0
bin	0.00962	0
bin	0.00964	0
bin	0.00966	10400
bin	0.00968	0
bin	0.0097	0
bin	0.00972	0
bin	0.00974	0
bin	0.00976	10400
bin	0.00978	0
bin	0.0098	0
bin	0.00982	0
bin	0.00984	0
bin	0.00986	10400
bin	0.00988	0
bin	0.0099	0
bin	0.00992	0
bin	0.00994	0
bin	0.00996	0
bin	0.00998	0
bin	0.01	0
bin	0.01002	31200
bin	0.01004	0
bin	0.01006	10400
bin	0.01008	0
bin	0.0101	0
bin	0.01012	0
bin	0.01014	0
bin	0.01016	0
bin	0.01018	0
bin	0.0102	0
bin	0.01022	0
bin	0.01024	0
bin	0.01026	0
bin	0.01028	0
bin	0.0103	0
bin	0.01032	0
bin	0.01034	0
bin	0.01036	0
bin	0.01038	0
bin	0.0104	0
statistic FatTree_4__fvj_dc_traffic_baseline_seed8.sink_005.app[0] endToEndDelay:histogram
field count 48
field mean 0.0090760208333333
field stddev 0.00050462969315767
field min 0.008729
field max 0.010009
field sum 0.435649
field sqrsum 0.003965928003
attr interpolationmode none
attr source dataAge(packetReceived)
attr title "end-to-end delay, histogram"
attr unit s
bin	-inf	0
bin	0.0084	0
bin	0.00842	0
bin	0.00844	0
bin	0.00846	0
bin	0.00848	0
bin	0.0085	0
bin	0.00852	0
bin	0.00854	0
bin	0.00856	0
bin	0.00858	0
bin	0.0086	0
bin	0.00862	0
bin	0.00864	0
bin	0.00866	0
bin	0.00868	0
bin	0.0087	0
bin	0.00872	26
bin	0.00874	1
bin	0.00876	0
bin	0.00878	0
bin	0.0088	0
bin	0.00882	1
bin	0.00884	2
bin	0.00886	0
bin	0.00888	0
bin	0.0089	0
bin	0.00892	1
bin	0.00894	0
bin	0.00896	1
bin	0.00898	0
bin	0.009	0
bin	0.00902	1
bin	0.00904	0
bin	0.00906	0
bin	0.00908	0
bin	0.0091	0
bin	0.00912	0
bin	0.00914	0
bin	0.00916	1
bin	0.00918	0
bin	0.0092	0
bin	0.00922	0
bin	0.00924	1
bin	0.00926	0
bin	0.00928	0
bin	0.0093	1
bin	0.00932	0
bin	0.00934	0
bin	0.00936	0
bin	0.00938	0
bin	0.0094	0
bin	0.00942	1
bin	0.00944	0
bin	0.00946	0
bin	0.00948	0
bin	0.0095	0
bin	0.00952	0
bin	0.00954	0
bin	0.00956	0
bin	0.00958	0
bin	0.0096	0
bin	0.00962	0
bin	0.00964	0
bin	0.00966	0
bin	0.00968	0
bin	0.0097	0
bin	0.00972	2
bin	0.00974	0
bin	0.00976	0
bin	0.00978	1
bin	0.0098	0
bin	0.00982	0
bin	0.00984	0
bin	0.00986	0
bin	0.00988	0
bin	0.0099	0
bin	0.00992	0
bin	0.00994	0
bin	0.00996	0
bin	0.00998	1
bin	0.01	7
bin	0.01002	0
bin	0.01004	0
bin	0.01006	0
bin	0.01008	0
bin	0.0101	0
bin	0.01012	0
bin	0.01014	0
bin	0.01016	0
bin	0.01018	0
bin	0.0102	0
bin	0.01022	0
bin	0.01024	0
bin	0.01026	0
bin	0.01028	0
bin	0.0103	0
bin	0.01032	0
bin	0.01034	0
statistic FatTree_4__fvj_dc_traffic_baseline_seed8.sink_005.app[0] endToEndDelay:weightedHistogram
field count 48
field mean 0.0090760208333333
field stddev 0.00050462969315759
field min 0.008729
field max 0.010009
field weights 499200
field weightedSum 4530.7496
field sqrSumWeights 5191680000
field weightedSqrSum 41.2456512312
attr interpolationmode none
attr source dataAge(packetReceived)
attr title "end-to-end delay, weightedHistogram"
attr unit s
bin	-inf	0
bin	0.0084	0
bin	0.00842	0
bin	0.00844	0
bin	0.00846	0
bin	0.00848	0
bin	0.0085	0
bin	0.00852	0
bin	0.00854	0
bin	0.00856	0
bin	0.00858	0
bin	0.0086	0
bin	0.00862	0
bin	0.00864	0
bin	0.00866	0
bin	0.00868	0
bin	0.0087	0
bin	0.00872	270400
bin	0.00874	10400
bin	0.00876	0
bin	0.00878	0
bin	0.0088	0
bin	0.00882	10400
bin	0.00884	20800
bin	0.00886	0
bin	0.00888	0
bin	0.0089	0
bin	0.00892	10400
bin	0.00894	0
bin	0.00896	10400
bin	0.00898	0
bin	0.009	0
bin	0.00902	10400
bin	0.00904	0
bin	0.00906	0
bin	0.00908	0
bin	0.0091	0
bin	0.00912	0
bin	0.00914	0
bin	0.00916	10400
bin	0.00918	0
bin	0.0092	0
bin	0.00922	0
bin	0.00924	10400
bin	0.00926	0
bin	0.00928	0
bin	0.0093	10400
bin	0.00932	0
bin	0.00934	0
bin	0.00936	0
bin	0.00938	0
bin	0.0094	0
bin	0.00942	10400
bin	0.00944	0
bin	0.00946	0
bin	0.00948	0
bin	0.0095	0
bin	0.00952	0
bin	0.00954	0
bin	0.00956	0
bin	0.00958	0
bin	0.0096	0
bin	0.00962	0
bin	0.00964	0
bin	0.00966	0
bin	0.00968	0
bin	0.0097	0
bin	0.00972	20800
bin	0.00974	0
bin	0.00976	0
bin	0.00978	10400
bin	0.0098	0
bin	0.00982	0
bin	0.00984	0
bin	0.00986	0
bin	0.00988	0
bin	0.0099	0
bin	0.00992	0
bin	0.00994	0
bin	0.00996	0
bin	0.00998	10400
bin	0.01	72800
bin	0.01002	0
bin	0.01004	0
bin	0.01006	0
bin	0.01008	0
bin	0.0101	0
bin	0.01012	0
bin	0.01014	0
bin	0.01016	0
bin	0.01018	0
bin	0.0102	0
bin	0.01022	0
bin	0.01024	0
bin	0.01026	0
bin	0.01028	0
bin	0.0103	0
bin	0.01032	0
bin	0.01034	0
statistic FatTree_4__fvj_dc_traffic_baseline_seed8.sink_006.app[0] endToEndDelay:histogram
field count 73
field mean 0.0088278493150685
field stddev 0.00039874809895871
field min 0.008729
field max 0.011383
field sum 0.644433
field sqrsum 0.005700405421
attr interpolationmode none
attr source dataAge(packetReceived)
attr title "end-to-end delay, histogram"
attr unit s
bin	-inf	0
bin	0.00805	0
bin	0.0081	0
bin	0.00815	0
bin	0.0082	0
bin	0.00825	0
bin	0.0083	0
bin	0.00835	0
bin	0.0084	0
bin	0.00845	0
bin	0.0085	0
bin	0.00855	0
bin	0.0086	0
bin	0.00865	0
bin	0.0087	65
bin	0.00875	2
bin	0.0088	1
bin	0.00885	0
bin	0.0089	0
bin	0.00895	0
bin	0.009	0
bin	0.00905	0
bin	0.0091	0
bin	0.00915	0
bin	0.0092	0
bin	0.00925	0
bin	0.0093	0
bin	0.00935	0
bin	0.0094	1
bin	0.00945	0
bin	0.0095	0
bin	0.00955	0
bin	0.0096	0
bin	0.00965	0
bin	0.0097	0
bin	0.00975	0
bin	0.0098	1
bin	0.00985	0
bin	0.0099	0
bin	0.00995	0
bin	0.01	1
bin	0.01005	1
bin	0.0101	0
bin	0.01015	0
bin	0.0102	0
bin	0.01025	0
bin	0.0103	0
bin	0.01035	0
bin	0.0104	0
bin	0.01045	0
bin	0.0105	0
bin	0.01055	0
bin	0.0106	0
bin	0.01065	0
bin	0.0107	0
bin	0.01075	0
bin	0.0108	0
bin	0.01085	0
bin	0.0109	0
bin	0.01095	0
bin	0.011	0
bin	0.01105	0
bin	0.0111	0
bin	0.01115	0
bin	0.0112	0
bin	0.01125	0
bin	0.0113	0
bin	0.01135	1
bin	0.0114	0
bin	0.01145	0
bin	0.0115	0
bin	0.01155	0
bin	0.0116	0
bin	0.01165	0
bin	0.0117	0
bin	0.01175	0
bin	0.0118	0
bin	0.01185	0
bin	0.0119	0
bin	0.01195	0
bin	0.012	0
bin	0.01205	0
statistic FatTree_4__fvj_dc_traffic_baseline_seed8.sink_006.app[0] endToEndDelay:weightedHistogram
field count 73
field mean 0.0088278493150685
field stddev 0.00039874809895838
[...]
field count 1
field mean 0.001048
field stddev -nan
field min 0.001048
field max 0.001048
field weights 160
field weightedSum 0.16768
field sqrSumWeights 25600
field weightedSqrSum 0.00017572864
attr interpolationmode none
attr source dataAge(packetReceived)
attr title "end-to-end delay, weightedHistogram"
attr unit s
bin	-inf	0
bin	0	160
bin	0.01	0
bin	0.02	0
bin	0.03	0
bin	0.04	0
bin	0.05	0
bin	0.06	0
bin	0.07	0
bin	0.08	0
bin	0.09	0
bin	0.1	0
bin	0.11	0
bin	0.12	0
bin	0.13	0
bin	0.14	0
bin	0.15	0
bin	0.16	0
bin	0.17	0
bin	0.18	0
bin	0.19	0
bin	0.2	0
bin	0.21	0
bin	0.22	0
bin	0.23	0
bin	0.24	0
bin	0.25	0
bin	0.26	0
bin	0.27	0
bin	0.28	0
bin	0.29	0
bin	0.3	0
bin	0.31	0
bin	0.32	0
bin	0.33	0
bin	0.34	0
bin	0.35	0
bin	0.36	0
bin	0.37	0
bin	0.38	0
bin	0.39	0
bin	0.4	0
bin	0.41	0
bin	0.42	0
bin	0.43	0
bin	0.44	0
bin	0.45	0
bin	0.46	0
bin	0.47	0
bin	0.48	0
bin	0.49	0
bin	0.5	0
bin	0.51	0
scalar FatTree_4__fvj_dc_traffic_baseline_seed8.source_074.app[0] numActiveSessions:max 1
attr interpolationmode sample-hold
attr source sum(connect)
attr title "number of active sessions, max"
scalar FatTree_4__fvj_dc_traffic_baseline_seed8.source_074.app[0] numActiveSessions:timeavg 3.3332e-05
attr interpolationmode sample-hold
attr source sum(connect)
attr title "number of active sessions, timeavg"
statistic FatTree_4__fvj_dc_traffic_baseline_seed8.source_075.app[0] endToEndDelay:histogram
field count 25
field mean 0.00113144
field stddev 0.00061861088200365
field min 0.000715
field max 0.002482
field sum 0.028286
field sqrsum 4.1188218e-05
attr interpolationmode none
attr source dataAge(packetReceived)
attr title "end-to-end delay, histogram"
attr unit s
bin	-inf	0
bin	0.00025	0
bin	0.0003	0
bin	0.00035	0
bin	0.0004	0
bin	0.00045	0
bin	0.0005	0
bin	0.00055	0
bin	0.0006	0
bin	0.00065	0
bin	0.0007	14
bin	0.00075	1
bin	0.0008	0
bin	0.00085	2
bin	0.0009	0
bin	0.00095	0
bin	0.001	0
bin	0.00105	0
bin	0.0011	0
bin	0.00115	0
bin	0.0012	0
bin	0.00125	0
bin	0.0013	1
bin	0.00135	0
bin	0.0014	0
bin	0.00145	0
bin	0.0015	0
bin	0.00155	0
bin	0.0016	0
bin	0.00165	0
bin	0.0017	0
bin	0.00175	1
bin	0.0018	1
bin	0.00185	0
bin	0.0019	2
bin	0.00195	0
bin	0.002	1
bin	0.00205	0
bin	0.0021	0
bin	0.00215	0
bin	0.0022	0
bin	0.00225	0
bin	0.0023	0
bin	0.00235	1
bin	0.0024	0
bin	0.00245	1
bin	0.0025	0
bin	0.00255	0
bin	0.0026	0
bin	0.00265	0
bin	0.0027	0
bin	0.00275	0
bin	0.0028	0
bin	0.00285	0
bin	0.0029	0
bin	0.00295	0
statistic FatTree_4__fvj_dc_traffic_baseline_seed8.source_075.app[0] endToEndDelay:weightedHistogram
field count 25
field mean 0.00113144
field stddev 0.00061861088200365
field min 0.000715
field max 0.002482
field weights 4000
field weightedSum 4.52576
field sqrSumWeights 640000
field weightedSqrSum 0.00659011488
attr interpolationmode none
attr source dataAge(packetReceived)
attr title "end-to-end delay, weightedHistogram"
attr unit s
bin	-inf	0
bin	0.00025	0
bin	0.0003	0
bin	0.00035	0
bin	0.0004	0
bin	0.00045	0
bin	0.0005	0
bin	0.00055	0
bin	0.0006	0
bin	0.00065	0
bin	0.0007	2240
bin	0.00075	160
bin	0.0008	0
bin	0.00085	320
bin	0.0009	0
bin	0.00095	0
bin	0.001	0
bin	0.00105	0
bin	0.0011	0
bin	0.00115	0
bin	0.0012	0
bin	0.00125	0
bin	0.0013	160
bin	0.00135	0
bin	0.0014	0
bin	0.00145	0
bin	0.0015	0
bin	0.00155	0
bin	0.0016	0
bin	0.00165	0
bin	0.0017	0
bin	0.00175	160
bin	0.0018	160
bin	0.00185	0
bin	0.0019	320
bin	0.00195	0
bin	0.002	160
bin	0.00205	0
bin	0.0021	0
bin	0.00215	0
bin	0.0022	0
bin	0.00225	0
bin	0.0023	0
bin	0.00235	160
bin	0.0024	0
bin	0.00245	160
bin	0.0025	0
bin	0.00255	0
bin	0.0026	0
bin	0.00265	0
bin	0.0027	0
bin	0.00275	0
bin	0.0028	0
bin	0.00285	0
bin	0.0029	0
bin	0.00295	0
scalar FatTree_4__fvj_dc_traffic_baseline_seed8.source_075.app[0] numActiveSessions:max 1
attr interpolationmode sample-hold
attr source sum(connect)
attr title "number of active sessions, max"
scalar FatTree_4__fvj_dc_traffic_baseline_seed8.source_075.app[0] numActiveSessions:timeavg 0.000447144
attr interpolationmode sample-hold
attr source sum(connect)
attr title "number of active sessions, timeavg"
statistic FatTree_4__fvj_dc_traffic_baseline_seed8.source_076.app[0] endToEndDelay:histogram
field count 3
field mean 0.0014533333333333
field stddev 0.00064383952451937
field min 0.000954
field max 0.00218
field sum 0.00436
field sqrsum 7.165592e-06
attr interpolationmode none
attr source dataAge(packetReceived)
attr title "end-to-end delay, histogram"
attr unit s
bin	-inf	0
bin	0.00064	0
bin	0.00066	0
bin	0.00068	0
bin	0.0007	0
bin	0.00072	0
bin	0.00074	0
bin	0.00076	0
bin	0.00078	0
bin	0.0008	0
bin	0.00082	0
bin	0.00084	0
bin	0.00086	0
bin	0.00088	0
bin	0.0009	0
bin	0.00092	0
bin	0.00094	1
bin	0.00096	0
bin	0.00098	0
bin	0.001	0
bin	0.00102	0
bin	0.00104	0
bin	0.00106	0
bin	0.00108	0
bin	0.0011	0
bin	0.00112	0
bin	0.00114	0
bin	0.00116	0
bin	0.00118	0
bin	0.0012	0
bin	0.00122	1
bin	0.00124	0
bin	0.00126	0
bin	0.00128	0
bin	0.0013	0
bin	0.00132	0
bin	0.00134	0
bin	0.00136	0
bin	0.00138	0
bin	0.0014	0
bin	0.00142	0
bin	0.00144	0
bin	0.00146	0
bin	0.00148	0
bin	0.0015	0
bin	0.00152	0
bin	0.00154	0
bin	0.00156	0
bin	0.00158	0
bin	0.0016	0
bin	0.00162	0
bin	0.00164	0
bin	0.00166	0
bin	0.00168	0
bin	0.0017	0
bin	0.00172	0
bin	0.00174	0
bin	0.00176	0
bin	0.00178	0
bin	0.0018	0
bin	0.00182	0
bin	0.00184	0
bin	0.00186	0
bin	0.00188	0
bin	0.0019	0
bin	0.00192	0
bin	0.00194	0
bin	0.00196	0
bin	0.00198	0
bin	0.002	0
bin	0.00202	0
bin	0.00204	0
bin	0.00206	0
bin	0.00208	0
bin	0.0021	0
bin	0.00212	0
bin	0.00214	0
bin	0.00216	0
bin	0.00218	1
bin	0.0022	0
bin	0.00222	0
bin	0.00224	0
bin	0.00226	0
bin	0.00228	0
bin	0.0023	0
bin	0.00232	0
bin	0.00234	0
bin	0.00236	0
bin	0.00238	0
bin	0.0024	0
bin	0.00242	0
bin	0.00244	0
bin	0.00246	0
bin	0.00248	0
bin	0.0025	0
statistic FatTree_4__fvj_dc_traffic_baseline_seed8.source_076.app[0] endToEndDelay:weightedHistogram
field count 3
field mean 0.0014533333333333
field stddev 0.00064383952451937
field min 0.000954
field max 0.00218
field weights 480
field weightedSum 0.6976
field sqrSumWeights 76800
field weightedSqrSum 0.00114649472
attr interpolationmode none
attr source dataAge(packetReceived)
attr title "end-to-end delay, weightedHistogram"
attr unit s
bin	-inf	0
bin	0.00064	0
bin	0.00066	0
bin	0.00068	0
bin	0.0007	0
bin	0.00072	0
bin	0.00074	0
bin	0.00076	0
bin	0.00078	0
bin	0.0008	0
bin	0.00082	0
bin	0.00084	0
bin	0.00086	0
bin	0.00088	0
bin	0.0009	0
bin	0.00092	0
bin	0.00094	160
bin	0.00096	0
bin	0.00098	0
bin	0.001	0
bin	0.00102	0
bin	0.00104	0
bin	0.00106	0
bin	0.00108	0
bin	0.0011	0
bin	0.00112	0
bin	0.00114	0
bin	0.00116	0
bin	0.00118	0
bin	0.0012	0
bin	0.00122	160
bin	0.00124	0
bin	0.00126	0
bin	0.00128	0
bin	0.0013	0
bin	0.00132	0
bin	0.00134	0
bin	0.00136	0
bin	0.00138	0
bin	0.0014	0
bin	0.00142	0
bin	0.00144	0
bin	0.00146	0
bin	0.00148	0
bin	0.0015	0
bin	0.00152	0
bin	0.00154	0
bin	0.00156	0
bin	0.00158	0
bin	0.0016	0
bin	0.00162	0
bin	0.00164	0
bin	0.00166	0
bin	0.00168	0
bin	0.0017	0
bin	0.00172	0
bin	0.00174	0
bin	0.00176	0
bin	0.00178	0
bin	0.0018	0
bin	0.00182	0
bin	0.00184	0
bin	0.00186	0
bin	0.00188	0
bin	0.0019	0
bin	0.00192	0
bin	0.00194	0
bin	0.00196	0
bin	0.00198	0
bin	0.002	0
bin	0.00202	0
bin	0.00204	0
bin	0.00206	0
bin	0.00208	0
bin	0.0021	0
bin	0.00212	0
bin	0.00214	0
bin	0.00216	0
bin	0.00218	160
bin	0.0022	0
bin	0.00222	0
bin	0.00224	0
bin	0.00226	0
bin	0.00228	0
bin	0.0023	0
bin	0.00232	0
bin	0.00234	0
bin	0.00236	0
bin	0.00238	0
bin	0.0024	0
bin	0.00242	0
bin	0.00244	0
bin	0.00246	0
bin	0.00248	0
bin	0.0025	0
scalar FatTree_4__fvj_dc_traffic_baseline_seed8.source_076.app[0] numActiveSessions:max 1
attr interpolationmode sample-hold
attr source sum(connect)
attr title "number of active sessions, max"
scalar FatTree_4__fvj_dc_traffic_baseline_seed8.source_076.app[0] numActiveSessions:timeavg 9.1119e-05
attr interpolationmode sample-hold
attr source sum(connect)
attr title "number of active sessions, timeavg"
statistic FatTree_4__fvj_dc_traffic_baseline_seed8.source_077.app[0] endToEndDelay:histogram
field count 57
field mean 0.00098335087719298
field stddev 0.00052250483563135
field min 0.000715
field max 0.002788
field sum 0.056051
field sqrsum 7.0406433e-05
attr interpolationmode none
attr source dataAge(packetReceived)
attr title "end-to-end delay, histogram"
attr unit s
bin	-inf	0
bin	0.00015	0
bin	0.0002	0
bin	0.00025	0
bin	0.0003	0
bin	0.00035	0
bin	0.0004	0
bin	0.00045	0
bin	0.0005	0
bin	0.00055	0
bin	0.0006	0
bin	0.00065	0
bin	0.0007	34
bin	0.00075	8
bin	0.0008	0
bin	0.00085	1
bin	0.0009	0
bin	0.00095	0
bin	0.001	0
bin	0.00105	2
bin	0.0011	0
bin	0.00115	1
bin	0.0012	0
bin	0.00125	0
bin	0.0013	2
bin	0.00135	0
bin	0.0014	1
bin	0.00145	0
bin	0.0015	0
bin	0.00155	0
bin	0.0016	0
bin	0.00165	0
bin	0.0017	1
bin	0.00175	0
bin	0.0018	0
bin	0.00185	0
bin	0.0019	1
bin	0.00195	1
bin	0.002	3
bin	0.00205	0
bin	0.0021	0
bin	0.00215	0
bin	0.0022	0
bin	0.00225	0
bin	0.0023	0
bin	0.00235	0
bin	0.0024	0
bin	0.00245	0
bin	0.0025	0
bin	0.00255	0
bin	0.0026	0
bin	0.00265	0
bin	0.0027	1
bin	0.00275	1
bin	0.0028	0
bin	0.00285	0
bin	0.0029	0
bin	0.00295	0
bin	0.003	0
bin	0.00305	0
bin	0.0031	0
bin	0.00315	0
bin	0.0032	0
bin	0.00325	0
bin	0.0033	0
bin	0.00335	0
statistic FatTree_4__fvj_dc_traffic_baseline_seed8.source_077.app[0] endToEndDelay:weightedHistogram
field count 57
field mean 0.00098335087719298
field stddev 0.00052250483563135
field min 0.000715
field max 0.002788
field weights 9120
field weightedSum 8.96816
field sqrSumWeights 1459200
field weightedSqrSum 0.01126502928
attr interpolationmode none
attr source dataAge(packetReceived)
attr title "end-to-end delay, weightedHistogram"
attr unit s
bin	-inf	0
bin	0.00015	0
bin	0.0002	0
bin	0.00025	0
bin	0.0003	0
bin	0.00035	0
bin	0.0004	0
bin	0.00045	0
bin	0.0005	0
bin	0.00055	0
bin	0.0006	0
bin	0.00065	0
bin	0.0007	5440
bin	0.00075	1280
bin	0.0008	0
bin	0.00085	160
bin	0.0009	0
bin	0.00095	0
bin	0.001	0
bin	0.00105	320
bin	0.0011	0
bin	0.00115	160
bin	0.0012	0
bin	0.00125	0
bin	0.0013	320
bin	0.00135	0
bin	0.0014	160
bin	0.00145	0
bin	0.0015	0
bin	0.00155	0
bin	0.0016	0
bin	0.00165	0
bin	0.0017	160
bin	0.00175	0
bin	0.0018	0
bin	0.00185	0
bin	0.0019	160
bin	0.00195	160
bin	0.002	480
bin	0.00205	0
bin	0.0021	0
bin	0.00215	0
bin	0.0022	0
bin	0.00225	0
bin	0.0023	0
bin	0.00235	0
bin	0.0024	0
bin	0.00245	0
bin	0.0025	0
bin	0.00255	0
bin	0.0026	0
bin	0.00265	0
bin	0.0027	160
bin	0.00275	160
bin	0.0028	0
bin	0.00285	0
bin	0.0029	0
bin	0.00295	0
bin	0.003	0
bin	0.00305	0
bin	0.0031	0
bin	0.00315	0
bin	0.0032	0
bin	0.00325	0
bin	0.0033	0
bin	0.00335	0
scalar FatTree_4__fvj_dc_traffic_baseline_seed8.source_077.app[0] numActiveSessions:max 1
attr interpolationmode sample-hold
attr source sum(connect)
attr title "number of active sessions, max"
scalar FatTree_4__fvj_dc_traffic_baseline_seed8.source_077.app[0] numActiveSessions:timeavg 0.000676653
attr interpolationmode sample-hold
attr source sum(connect)
attr title "number of active sessions, timeavg"
statistic FatTree_4__fvj_dc_traffic_baseline_seed8.source_078.app[0] endToEndDelay:histogram
field count 109
field mean 0.0018613027522936
field stddev 0.00084453251921455
field min 0.001049
field max 0.005584
field sum 0.202882
field sqrsum 0.000454654224
attr interpolationmode none
attr source dataAge(packetReceived)
attr title "end-to-end delay, histogram"
attr unit s
bin	-inf	0
bin	0	0
bin	0.0001	0
bin	0.0002	0
bin	0.0003	0
bin	0.0004	0
bin	0.0005	0
bin	0.0006	0
bin	0.0007	0
bin	0.0008	0
bin	0.0009	0
bin	0.001	29
bin	0.0011	3
bin	0.0012	6
bin	0.0013	4
bin	0.0014	6
bin	0.0015	9
bin	0.0016	1
bin	0.0017	0
bin	0.0018	5
bin	0.0019	2
bin	0.002	1
bin	0.0021	2
bin	0.0022	9
bin	0.0023	11
bin	0.0024	6
bin	0.0025	1
bin	0.0026	0
bin	0.0027	2
bin	0.0028	1
bin	0.0029	0
bin	0.003	1
bin	0.0031	2
bin	0.0032	1
bin	0.0033	0
bin	0.0034	3
bin	0.0035	0
bin	0.0036	0
bin	0.0037	1
bin	0.0038	1
bin	0.0039	0
bin	0.004	0
bin	0.0041	0
bin	0.0042	0
bin	0.0043	0
bin	0.0044	0
bin	0.0045	1
bin	0.0046	0
bin	0.0047	0
bin	0.0048	0
bin	0.0049	0
bin	0.005	0
bin	0.0051	0
bin	0.0052	0
bin	0.0053	0
bin	0.0054	0
bin	0.0055	1
bin	0.0056	0
bin	0.0057	0
bin	0.0058	0
bin	0.0059	0
bin	0.006	0
bin	0.0061	0
bin	0.0062	0
bin	0.0063	0
bin	0.0064	0
bin	0.0065	0
bin	0.0066	0
bin	0.0067	0
bin	0.0068	0
statistic FatTree_4__fvj_dc_traffic_baseline_seed8.source_078.app[0] endToEndDelay:weightedHistogram
field count 109
field mean 0.0018613027522936
field stddev 0.00084453251921455
field min 0.001049
field max 0.005584
field weights 17440
field weightedSum 32.46112
field sqrSumWeights 2790400
field weightedSqrSum 0.07274467584
attr interpolationmode none
attr source dataAge(packetReceived)
attr title "end-to-end delay, weightedHistogram"
attr unit s
bin	-inf	0
bin	0	0
bin	0.0001	0
bin	0.0002	0
bin	0.0003	0
bin	0.0004	0
bin	0.0005	0
bin	0.0006	0
bin	0.0007	0
bin	0.0008	0
bin	0.0009	0
bin	0.001	4640
bin	0.0011	480
bin	0.0012	960
bin	0.0013	640
bin	0.0014	960
bin	0.0015	1440
bin	0.0016	160
bin	0.0017	0
bin	0.0018	800
bin	0.0019	320
bin	0.002	160
bin	0.0021	320
bin	0.0022	1440
bin	0.0023	1760
bin	0.0024	960
bin	0.0025	160
bin	0.0026	0
bin	0.0027	320
bin	0.0028	160
bin	0.0029	0
bin	0.003	160
bin	0.0031	320
bin	0.0032	160
bin	0.0033	0
bin	0.0034	480
bin	0.0035	0
bin	0.0036	0
bin	0.0037	160
bin	0.0038	160
bin	0.0039	0
bin	0.004	0
bin	0.0041	0
bin	0.0042	0
bin	0.0043	0
bin	0.0044	0
bin	0.0045	160
bin	0.0046	0
bin	0.0047	0
bin	0.0048	0
bin	0.0049	0
bin	0.005	0
bin	0.0051	0
bin	0.0052	0
bin	0.0053	0
bin	0.0054	0
bin	0.0055	160
bin	0.0056	0
bin	0.0057	0
bin	0.0058	0
bin	0.0059	0
bin	0.006	0
bin	0.0061	0
bin	0.0062	0
bin	0.0063	0
bin	0.0064	0
bin	0.0065	0
bin	0.0066	0
bin	0.0067	0
bin	0.0068	0
scalar FatTree_4__fvj_dc_traffic_baseline_seed8.source_078.app[0] numActiveSessions:max 1
attr interpolationmode sample-hold
attr source sum(connect)
attr title "number of active sessions, max"
scalar FatTree_4__fvj_dc_traffic_baseline_seed8.source_078.app[0] numActiveSessions:timeavg 0.00117717
attr interpolationmode sample-hold
attr source sum(connect)
attr title "number of active sessions, timeavg"
statistic FatTree_4__fvj_dc_traffic_baseline_seed8.source_079.app[0] endToEndDelay:histogram
field count 10
field mean 0.0023253
field stddev 0.0013231027548909
field min 0.001049
field max 0.005009
field sum 0.023253
field sqrsum 6.9825609e-05
attr interpolationmode none
attr source dataAge(packetReceived)
attr title "end-to-end delay, histogram"
attr unit s
bin	-inf	0
bin	0	0
bin	0.0001	0
bin	0.0002	0
bin	0.0003	0
bin	0.0004	0
bin	0.0005	0
bin	0.0006	0
bin	0.0007	0
bin	0.0008	0
bin	0.0009	0
bin	0.001	3
bin	0.0011	0
bin	0.0012	0
bin	0.0013	0
bin	0.0014	1
bin	0.0015	0
bin	0.0016	0
bin	0.0017	0
bin	0.0018	0
bin	0.0019	0
bin	0.002	1
bin	0.0021	0
bin	0.0022	0
bin	0.0023	0
bin	0.0024	1
bin	0.0025	0
bin	0.0026	2
bin	0.0027	0
bin	0.0028	0
bin	0.0029	0
bin	0.003	0
bin	0.0031	0
bin	0.0032	0
bin	0.0033	0
bin	0.0034	0
bin	0.0035	0
bin	0.0036	0
bin	0.0037	0
bin	0.0038	0
bin	0.0039	1
bin	0.004	0
bin	0.0041	0
bin	0.0042	0
bin	0.0043	0
bin	0.0044	0
bin	0.0045	0
bin	0.0046	0
bin	0.0047	0
bin	0.0048	0
bin	0.0049	0
bin	0.005	1
bin	0.0051	0
bin	0.0052	0
bin	0.0053	0
bin	0.0054	0
bin	0.0055	0
bin	0.0056	0
bin	0.0057	0
bin	0.0058	0
bin	0.0059	0
bin	0.006	0
statistic FatTree_4__fvj_dc_traffic_baseline_seed8.source_079.app[0] endToEndDelay:weightedHistogram
field count 10
field mean 0.0023253
field stddev 0.0013231027548909
field min 0.001049
field max 0.005009
field weights 1600
field weightedSum 3.72048
field sqrSumWeights 256000
field weightedSqrSum 0.01117209744
attr interpolationmode none
attr source dataAge(packetReceived)
attr title "end-to-end delay, weightedHistogram"
attr unit s
bin	-inf	0
bin	0	0
bin	0.0001	0
bin	0.0002	0
bin	0.0003	0
bin	0.0004	0
bin	0.0005	0
bin	0.0006	0
bin	0.0007	0
bin	0.0008	0
bin	0.0009	0
bin	0.001	480
bin	0.0011	0
bin	0.0012	0
bin	0.0013	0
bin	0.0014	160
bin	0.0015	0
bin	0.0016	0
bin	0.0017	0
bin	0.0018	0
bin	0.0019	0
bin	0.002	160
bin	0.0021	0
bin	0.0022	0
bin	0.0023	0
bin	0.0024	160
bin	0.0025	0
bin	0.0026	320
bin	0.0027	0
bin	0.0028	0
bin	0.0029	0
bin	0.003	0
bin	0.0031	0
bin	0.0032	0
bin	0.0033	0
bin	0.0034	0
bin	0.0035	0
bin	0.0036	0
bin	0.0037	0
bin	0.0038	0
bin	0.0039	160
bin	0.004	0
bin	0.0041	0
bin	0.0042	0
bin	0.0043	0
bin	0.0044	0
bin	0.0045	0
bin	0.0046	0
bin	0.0047	0
bin	0.0048	0
bin	0.0049	0
bin	0.005	160
bin	0.0051	0
bin	0.0052	0
bin	0.0053	0
bin	0.0054	0
bin	0.0055	0
bin	0.0056	0
bin	0.0057	0
bin	0.0058	0
bin	0.0059	0
bin	0.006	0
scalar FatTree_4__fvj_dc_traffic_baseline_seed8.source_079.app[0] numActiveSessions:max 1
attr interpolationmode sample-hold
attr source sum(connect)
attr title "number of active sessions, max"
scalar FatTree_4__fvj_dc_traffic_baseline_seed8.source_079.app[0] numActiveSessions:timeavg 0.000117863
attr interpolationmode sample-hold
attr source sum(connect)
attr title "number of active sessions, timeavg"
statistic FatTree_4__fvj_dc_traffic_baseline_seed8.source_080.app[0] endToEndDelay:histogram
field count 652
field mean 0.0010870858895705
field stddev 0.00029554590898323
field min 0.001049
field max 0.005792
field sum 0.70878
field sqrsum 0.000827367884
attr interpolationmode none
attr source dataAge(packetReceived)
attr title "end-to-end delay, histogram"
attr unit s
bin	-inf	0
bin	0	0
bin	0.0001	0
bin	0.0002	0
bin	0.0003	0
bin	0.0004	0
bin	0.0005	0
bin	0.0006	0
bin	0.0007	0
bin	0.0008	0
bin	0.0009	0
bin	0.001	630
bin	0.0011	7
bin	0.0012	1
bin	0.0013	0
bin	0.0014	1
bin	0.0015	1
bin	0.0016	0
bin	0.0017	1
bin	0.0018	1
bin	0.0019	0
bin	0.002	0
bin	0.0021	1
bin	0.0022	1
bin	0.0023	1
bin	0.0024	1
bin	0.0025	2
bin	0.0026	0
bin	0.0027	0
bin	0.0028	0
bin	0.0029	0
bin	0.003	0
bin	0.0031	0
bin	0.0032	1
bin	0.0033	0
bin	0.0034	1
bin	0.0035	0
bin	0.0036	0
bin	0.0037	0
bin	0.0038	0
bin	0.0039	0
bin	0.004	0
bin	0.0041	0
bin	0.0042	0
bin	0.0043	0
bin	0.0044	1
bin	0.0045	0
bin	0.0046	0
bin	0.0047	0
bin	0.0048	0
bin	0.0049	0
bin	0.005	0
bin	0.0051	0
bin	0.0052	0
bin	0.0053	0
bin	0.0054	0
bin	0.0055	0
bin	0.0056	0
bin	0.0057	1
bin	0.0058	0
bin	0.0059	0
bin	0.006	0
bin	0.0061	0
bin	0.0062	0
bin	0.0063	0
bin	0.0064	0
bin	0.0065	0
bin	0.0066	0
bin	0.0067	0
bin	0.0068	0
bin	0.0069	0
bin	0.007	0
statistic FatTree_4__fvj_dc_traffic_baseline_seed8.source_080.app[0] endToEndDelay:weightedHistogram
field count 652
field mean 0.0010870858895705
field stddev 0.00029554590898328
field min 0.001049
field max 0.005792
field weights 104320
field weightedSum 113.4048
field sqrSumWeights 16691200
field weightedSqrSum 0.13237886144
attr interpolationmode none
attr source dataAge(packetReceived)
attr title "end-to-end delay, weightedHistogram"
attr unit s
bin	-inf	0
bin	0	0
bin	0.0001	0
bin	0.0002	0
bin	0.0003	0
bin	0.0004	0
bin	0.0005	0
bin	0.0006	0
bin	0.0007	0
bin	0.0008	0
bin	0.0009	0
bin	0.001	100800
bin	0.0011	1120
bin	0.0012	160
bin	0.0013	0
bin	0.0014	160
bin	0.0015	160
bin	0.0016	0
bin	0.0017	160
bin	0.0018	160
bin	0.0019	0
bin	0.002	0
bin	0.0021	160
bin	0.0022	160
bin	0.0023	160
bin	0.0024	160
bin	0.0025	320
bin	0.0026	0
bin	0.0027	0
bin	0.0028	0
bin	0.0029	0
bin	0.003	0
bin	0.0031	0
bin	0.0032	160
bin	0.0033	0
bin	0.0034	160
bin	0.0035	0
bin	0.0036	0
bin	0.0037	0
bin	0.0038	0
bin	0.0039	0
bin	0.004	0
bin	0.0041	0
bin	0.0042	0
bin	0.0043	0
bin	0.0044	160
bin	0.0045	0
bin	0.0046	0
bin	0.0047	0
bin	0.0048	0
bin	0.0049	0
bin	0.005	0
bin	0.0051	0
bin	0.0052	0
bin	0.0053	0
bin	0.0054	0
bin	0.0055	0
bin	0.0056	0
bin	0.0057	160
bin	0.0058	0
bin	0.0059	0
bin	0.006	0
bin	0.0061	0
bin	0.0062	0
bin	0.0063	0
bin	0.0064	0
bin	0.0065	0
bin	0.0066	0
bin	0.0067	0
bin	0.0068	0
bin	0.0069	0
bin	0.007	0
scalar FatTree_4__fvj_dc_traffic_baseline_seed8.source_080.app[0] numActiveSessions:max 1
attr interpolationmode sample-hold
attr source sum(connect)
attr title "number of active sessions, max"
scalar FatTree_4__fvj_dc_traffic_baseline_seed8.source_080.app[0] numActiveSessions:timeavg 0.006488039
attr interpolationmode sample-hold
attr source sum(connect)
attr title "number of active sessions, timeavg"

