version 2
run General-0-20220428-00:22:06-22857
attr configname General
attr datetime 20220428-00:22:06
attr experiment General
attr inifile FatTree_6__fvj_dc_big_traffic_seed5.ini
attr iterationvars ""
attr iterationvarsf ""
attr measurement ""
attr network FatTree_6__fvj_dc_big_traffic_seed5
attr processid 22857
attr repetition 0
attr replication #0
attr resultdir results
attr runnumber 0
attr seedset 0
param **.ppp[*].ppp.queue.typename "\"DropTailQueue\""
param **.ppp[*].ppp.queue.packetCapacity 100
param *.configurator.config "xmldoc(\"FatTree_6__fvj_dc_big_traffic_seed5.xml\")"
param **.sink_000.numApps 1
param **.sink_000.app[0].typename "\"TcpGenericServerApp\""
param **.sink_000.app[0].localAddress "\"\""
param **.sink_000.app[0].localPort 1100
param **.sink_000.app[0].replyDelay 0s
param **.sink_001.numApps 1
param **.sink_001.app[0].typename "\"TcpGenericServerApp\""
param **.sink_001.app[0].localAddress "\"\""
param **.sink_001.app[0].localPort 1100
param **.sink_001.app[0].replyDelay 0s
param **.sink_002.numApps 1
param **.sink_002.app[0].typename "\"TcpGenericServerApp\""
param **.sink_002.app[0].localAddress "\"\""
param **.sink_002.app[0].localPort 1100
param **.sink_002.app[0].replyDelay 0s
param **.sink_003.numApps 1
param **.sink_003.app[0].typename "\"TcpGenericServerApp\""
param **.sink_003.app[0].localAddress "\"\""
param **.sink_003.app[0].localPort 1100
param **.sink_003.app[0].replyDelay 0s
param **.sink_004.numApps 1
param **.sink_004.app[0].typename "\"TcpGenericServerApp\""
param **.sink_004.app[0].localAddress "\"\""
param **.sink_004.app[0].localPort 1100
param **.sink_004.app[0].replyDelay 0s
param **.sink_005.numApps 1
param **.sink_005.app[0].typename "\"TcpGenericServerApp\""
param **.sink_005.app[0].localAddress "\"\""
param **.sink_005.app[0].localPort 1100
param **.sink_005.app[0].replyDelay 0s
param **.sink_006.numApps 1
param **.sink_006.app[0].typename "\"TcpGenericServerApp\""
param **.sink_006.app[0].localAddress "\"\""
param **.sink_006.app[0].localPort 1100
param **.sink_006.app[0].replyDelay 0s
param **.sink_007.numApps 1
param **.sink_007.app[0].typename "\"TcpGenericServerApp\""
param **.sink_007.app[0].localAddress "\"\""
param **.sink_007.app[0].localPort 1100
param **.sink_007.app[0].replyDelay 0s
param **.sink_008.numApps 1
param **.sink_008.app[0].typename "\"TcpGenericServerApp\""
param **.sink_008.app[0].localAddress "\"\""
param **.sink_008.app[0].localPort 1100
param **.sink_008.app[0].replyDelay 0s
param **.sink_009.numApps 1
param **.sink_009.app[0].typename "\"TcpGenericServerApp\""
param **.sink_009.app[0].localAddress "\"\""
param **.sink_009.app[0].localPort 1100
param **.sink_009.app[0].replyDelay 0s
param **.sink_010.numApps 1
param **.sink_010.app[0].typename "\"TcpGenericServerApp\""
param **.sink_010.app[0].localAddress "\"\""
param **.sink_010.app[0].localPort 1100
param **.sink_010.app[0].replyDelay 0s
param **.sink_011.numApps 1
param **.sink_011.app[0].typename "\"TcpGenericServerApp\""
param **.sink_011.app[0].localAddress "\"\""
param **.sink_011.app[0].localPort 1100
param **.sink_011.app[0].replyDelay 0s
param **.sink_012.numApps 1
param **.sink_012.app[0].typename "\"TcpGenericServerApp\""
param **.sink_012.app[0].localAddress "\"\""
param **.sink_012.app[0].localPort 1100
param **.sink_012.app[0].replyDelay 0s
param **.sink_013.numApps 1
param **.sink_013.app[0].typename "\"TcpGenericServerApp\""
param **.sink_013.app[0].localAddress "\"\""
param **.sink_013.app[0].localPort 1100
param **.sink_013.app[0].replyDelay 0s
param **.sink_014.numApps 1
param **.sink_014.app[0].typename "\"TcpGenericServerApp\""
param **.sink_014.app[0].localAddress "\"\""
param **.sink_014.app[0].localPort 1100
param **.sink_014.app[0].replyDelay 0s
param **.sink_015.numApps 1
param **.sink_015.app[0].typename "\"TcpGenericServerApp\""
param **.sink_015.app[0].localAddress "\"\""
param **.sink_015.app[0].localPort 1100
param **.sink_015.app[0].replyDelay 0s
param **.sink_016.numApps 1
param **.sink_016.app[0].typename "\"TcpGenericServerApp\""
param **.sink_016.app[0].localAddress "\"\""
param **.sink_016.app[0].localPort 1100
param **.sink_016.app[0].replyDelay 0s
param **.sink_017.numApps 1
param **.sink_017.app[0].typename "\"TcpGenericServerApp\""
param **.sink_017.app[0].localAddress "\"\""
param **.sink_017.app[0].localPort 1100
param **.sink_017.app[0].replyDelay 0s
param **.sink_018.numApps 1
param **.sink_018.app[0].typename "\"TcpGenericServerApp\""
param **.sink_018.app[0].localAddress "\"\""
param **.sink_018.app[0].localPort 1100
param **.sink_018.app[0].replyDelay 0s
param **.sink_019.numApps 1
param **.sink_019.app[0].typename "\"TcpGenericServerApp\""
param **.sink_019.app[0].localAddress "\"\""
param **.sink_019.app[0].localPort 1100
param **.sink_019.app[0].replyDelay 0s
param **.sink_020.numApps 1
param **.sink_020.app[0].typename "\"TcpGenericServerApp\""
param **.sink_020.app[0].localAddress "\"\""
param **.sink_020.app[0].localPort 1100
param **.sink_020.app[0].replyDelay 0s
param **.sink_021.numApps 1
param **.sink_021.app[0].typename "\"TcpGenericServerApp\""
param **.sink_021.app[0].localAddress "\"\""
param **.sink_021.app[0].localPort 1100
param **.sink_021.app[0].replyDelay 0s
param **.sink_022.numApps 1
param **.sink_022.app[0].typename "\"TcpGenericServerApp\""
param **.sink_022.app[0].localAddress "\"\""
param **.sink_022.app[0].localPort 1100
param **.sink_022.app[0].replyDelay 0s
param **.sink_023.numApps 1
param **.sink_023.app[0].typename "\"TcpGenericServerApp\""
param **.sink_023.app[0].localAddress "\"\""
param **.sink_023.app[0].localPort 1100
param **.sink_023.app[0].replyDelay 0s
param **.sink_024.numApps 1
param **.sink_024.app[0].typename "\"TcpGenericServerApp\""
param **.sink_024.app[0].localAddress "\"\""
param **.sink_024.app[0].localPort 1100
param **.sink_024.app[0].replyDelay 0s
param **.sink_025.numApps 1
param **.sink_025.app[0].typename "\"TcpGenericServerApp\""
param **.sink_025.app[0].localAddress "\"\""
param **.sink_025.app[0].localPort 1100
param **.sink_025.app[0].replyDelay 0s
param **.sink_026.numApps 1
param **.sink_026.app[0].typename "\"TcpGenericServerApp\""
param **.sink_026.app[0].localAddress "\"\""
param **.sink_026.app[0].localPort 1100
param **.sink_026.app[0].replyDelay 0s
param **.sink_027.numApps 1
param **.sink_027.app[0].typename "\"TcpGenericServerApp\""
param **.sink_027.app[0].localAddress "\"\""
param **.sink_027.app[0].localPort 1100
param **.sink_027.app[0].replyDelay 0s
param **.sink_028.numApps 1
param **.sink_028.app[0].typename "\"TcpGenericServerApp\""
param **.sink_028.app[0].localAddress "\"\""
param **.sink_028.app[0].localPort 1100
param **.sink_028.app[0].replyDelay 0s
param **.sink_029.numApps 1
param **.sink_029.app[0].typename "\"TcpGenericServerApp\""
param **.sink_029.app[0].localAddress "\"\""
param **.sink_029.app[0].localPort 1100
param **.sink_029.app[0].replyDelay 0s
param **.sink_030.numApps 1
param **.sink_030.app[0].typename "\"TcpGenericServerApp\""
param **.sink_030.app[0].localAddress "\"\""
param **.sink_030.app[0].localPort 1100
param **.sink_030.app[0].replyDelay 0s
param **.sink_031.numApps 1
param **.sink_031.app[0].typename "\"TcpGenericServerApp\""
param **.sink_031.app[0].localAddress "\"\""
param **.sink_031.app[0].localPort 1100
param **.sink_031.app[0].replyDelay 0s
param **.sink_032.numApps 1
param **.sink_032.app[0].typename "\"TcpGenericServerApp\""
param **.sink_032.app[0].localAddress "\"\""
param **.sink_032.app[0].localPort 1100
param **.sink_032.app[0].replyDelay 0s
param **.sink_033.numApps 1
param **.sink_033.app[0].typename "\"TcpGenericServerApp\""
param **.sink_033.app[0].localAddress "\"\""
param **.sink_033.app[0].localPort 1100
param **.sink_033.app[0].replyDelay 0s
param **.sink_034.numApps 1
param **.sink_034.app[0].typename "\"TcpGenericServerApp\""
param **.sink_034.app[0].localAddress "\"\""
param **.sink_034.app[0].localPort 1100
param **.sink_034.app[0].replyDelay 0s
param **.sink_035.numApps 1
param **.sink_035.app[0].typename "\"TcpGenericServerApp\""
param **.sink_035.app[0].localAddress "\"\""
param **.sink_035.app[0].localPort 1100
param **.sink_035.app[0].replyDelay 0s
param **.sink_036.numApps 1
param **.sink_036.app[0].typename "\"TcpGenericServerApp\""
param **.sink_036.app[0].localAddress "\"\""
param **.sink_036.app[0].localPort 1100
param **.sink_036.app[0].replyDelay 0s
param **.sink_037.numApps 1
param **.sink_037.app[0].typename "\"TcpGenericServerApp\""
param **.sink_037.app[0].localAddress "\"\""
param **.sink_037.app[0].localPort 1100
param **.sink_037.app[0].replyDelay 0s
param **.sink_038.numApps 1
param **.sink_038.app[0].typename "\"TcpGenericServerApp\""
param **.sink_038.app[0].localAddress "\"\""
param **.sink_038.app[0].localPort 1100
param **.sink_038.app[0].replyDelay 0s
param **.sink_039.numApps 1
param **.sink_039.app[0].typename "\"TcpGenericServerApp\""
param **.sink_039.app[0].localAddress "\"\""
param **.sink_039.app[0].localPort 1100
param **.sink_039.app[0].replyDelay 0s
param **.sink_040.numApps 1
param **.sink_040.app[0].typename "\"TcpGenericServerApp\""
param **.sink_040.app[0].localAddress "\"\""
param **.sink_040.app[0].localPort 1100
param **.sink_040.app[0].replyDelay 0s
param **.sink_041.numApps 1
param **.sink_041.app[0].typename "\"TcpGenericServerApp\""
param **.sink_041.app[0].localAddress "\"\""
param **.sink_041.app[0].localPort 1100
param **.sink_041.app[0].replyDelay 0s
param **.sink_042.numApps 1
param **.sink_042.app[0].typename "\"TcpGenericServerApp\""
param **.sink_042.app[0].localAddress "\"\""
param **.sink_042.app[0].localPort 1100
param **.sink_042.app[0].replyDelay 0s
param **.sink_043.numApps 1
param **.sink_043.app[0].typename "\"TcpGenericServerApp\""
param **.sink_043.app[0].localAddress "\"\""
param **.sink_043.app[0].localPort 1100
param **.sink_043.app[0].replyDelay 0s
param **.sink_044.numApps 1
param **.sink_044.app[0].typename "\"TcpGenericServerApp\""
param **.sink_044.app[0].localAddress "\"\""
param **.sink_044.app[0].localPort 1100
param **.sink_044.app[0].replyDelay 0s
param **.sink_045.numApps 1
param **.sink_045.app[0].typename "\"TcpGenericServerApp\""
param **.sink_045.app[0].localAddress "\"\""
param **.sink_045.app[0].localPort 1100
param **.sink_045.app[0].replyDelay 0s
param **.sink_046.numApps 1
param **.sink_046.app[0].typename "\"TcpGenericServerApp\""
param **.sink_046.app[0].localAddress "\"\""
param **.sink_046.app[0].localPort 1100
param **.sink_046.app[0].replyDelay 0s
param **.sink_047.numApps 1
param **.sink_047.app[0].typename "\"TcpGenericServerApp\""
param **.sink_047.app[0].localAddress "\"\""
param **.sink_047.app[0].localPort 1100
param **.sink_047.app[0].replyDelay 0s
param **.sink_048.numApps 1
param **.sink_048.app[0].typename "\"TcpGenericServerApp\""
param **.sink_048.app[0].localAddress "\"\""
param **.sink_048.app[0].localPort 1100
param **.sink_048.app[0].replyDelay 0s
param **.sink_049.numApps 1
param **.sink_049.app[0].typename "\"TcpGenericServerApp\""
param **.sink_049.app[0].localAddress "\"\""
param **.sink_049.app[0].localPort 1100
param **.sink_049.app[0].replyDelay 0s
param **.sink_050.numApps 1
param **.sink_050.app[0].typename "\"TcpGenericServerApp\""
param **.sink_050.app[0].localAddress "\"\""
param **.sink_050.app[0].localPort 1100
param **.sink_050.app[0].replyDelay 0s
param **.sink_051.numApps 1
param **.sink_051.app[0].typename "\"TcpGenericServerApp\""
param **.sink_051.app[0].localAddress "\"\""
param **.sink_051.app[0].localPort 1100
param **.sink_051.app[0].replyDelay 0s
param **.sink_052.numApps 1
param **.sink_052.app[0].typename "\"TcpGenericServerApp\""
param **.sink_052.app[0].localAddress "\"\""
param **.sink_052.app[0].localPort 1100
param **.sink_052.app[0].replyDelay 0s
param **.sink_053.numApps 1
param **.sink_053.app[0].typename "\"TcpGenericServerApp\""
param **.sink_053.app[0].localAddress "\"\""
param **.sink_053.app[0].localPort 1100
param **.sink_053.app[0].replyDelay 0s
param **.sink_054.numApps 1
param **.sink_054.app[0].typename "\"TcpGenericServerApp\""
param **.sink_054.app[0].localAddress "\"\""
param **.sink_054.app[0].localPort 1100
param **.sink_054.app[0].replyDelay 0s
param **.sink_055.numApps 1
param **.sink_055.app[0].typename "\"TcpGenericServerApp\""
param **.sink_055.app[0].localAddress "\"\""
param **.sink_055.app[0].localPort 1100
param **.sink_055.app[0].replyDelay 0s
param **.sink_056.numApps 1
param **.sink_056.app[0].typename "\"TcpGenericServerApp\""
param **.sink_056.app[0].localAddress "\"\""
param **.sink_056.app[0].localPort 1100
param **.sink_056.app[0].replyDelay 0s
param **.sink_057.numApps 1
param **.sink_057.app[0].typename "\"TcpGenericServerApp\""
param **.sink_057.app[0].localAddress "\"\""
param **.sink_057.app[0].localPort 1100
param **.sink_057.app[0].replyDelay 0s
param **.sink_058.numApps 1
param **.sink_058.app[0].typename "\"TcpGenericServerApp\""
param **.sink_058.app[0].localAddress "\"\""
param **.sink_058.app[0].localPort 1100
param **.sink_058.app[0].replyDelay 0s
param **.sink_059.numApps 1
param **.sink_059.app[0].typename "\"TcpGenericServerApp\""
param **.sink_059.app[0].localAddress "\"\""
param **.sink_059.app[0].localPort 1100
param **.sink_059.app[0].replyDelay 0s
param **.sink_060.numApps 1
param **.sink_060.app[0].typename "\"TcpGenericServerApp\""
param **.sink_060.app[0].localAddress "\"\""
param **.sink_060.app[0].localPort 1100
param **.sink_060.app[0].replyDelay 0s
param **.sink_061.numApps 1
param **.sink_061.app[0].typename "\"TcpGenericServerApp\""
param **.sink_061.app[0].localAddress "\"\""
param **.sink_061.app[0].localPort 1100
param **.sink_061.app[0].replyDelay 0s
param **.sink_062.numApps 1
param **.sink_062.app[0].typename "\"TcpGenericServerApp\""
param **.sink_062.app[0].localAddress "\"\""
param **.sink_062.app[0].localPort 1100
param **.sink_062.app[0].replyDelay 0s
param **.sink_063.numApps 1
param **.sink_063.app[0].typename "\"TcpGenericServerApp\""
param **.sink_063.app[0].localAddress "\"\""
param **.sink_063.app[0].localPort 1100
param **.sink_063.app[0].replyDelay 0s
param **.sink_064.numApps 1
param **.sink_064.app[0].typename "\"TcpGenericServerApp\""
param **.sink_064.app[0].localAddress "\"\""
param **.sink_064.app[0].localPort 1100
param **.sink_064.app[0].replyDelay 0s
param **.sink_065.numApps 1
param **.sink_065.app[0].typename "\"TcpGenericServerApp\""
param **.sink_065.app[0].localAddress "\"\""
param **.sink_065.app[0].localPort 1100
param **.sink_065.app[0].replyDelay 0s
param **.sink_066.numApps 1
param **.sink_066.app[0].typename "\"TcpGenericServerApp\""
param **.sink_066.app[0].localAddress "\"\""
param **.sink_066.app[0].localPort 1100
param **.sink_066.app[0].replyDelay 0s
param **.sink_067.numApps 1
param **.sink_067.app[0].typename "\"TcpGenericServerApp\""
param **.sink_067.app[0].localAddress "\"\""
param **.sink_067.app[0].localPort 1100
param **.sink_067.app[0].replyDelay 0s
param **.sink_068.numApps 1
param **.sink_068.app[0].typename "\"TcpGenericServerApp\""
param **.sink_068.app[0].localAddress "\"\""
param **.sink_068.app[0].localPort 1100
param **.sink_068.app[0].replyDelay 0s
param **.sink_069.numApps 1
param **.sink_069.app[0].typename "\"TcpGenericServerApp\""
param **.sink_069.app[0].localAddress "\"\""
param **.sink_069.app[0].localPort 1100
param **.sink_069.app[0].replyDelay 0s
param **.sink_070.numApps 1
param **.sink_070.app[0].typename "\"TcpGenericServerApp\""
param **.sink_070.app[0].localAddress "\"\""
param **.sink_070.app[0].localPort 1100
param **.sink_070.app[0].replyDelay 0s
param **.sink_071.numApps 1
param **.sink_071.app[0].typename "\"TcpGenericServerApp\""
param **.sink_071.app[0].localAddress "\"\""
param **.sink_071.app[0].localPort 1100
param **.sink_071.app[0].replyDelay 0s
param **.sink_072.numApps 1
param **.sink_072.app[0].typename "\"TcpGenericServerApp\""
param **.sink_072.app[0].localAddress "\"\""
param **.sink_072.app[0].localPort 1100
param **.sink_072.app[0].replyDelay 0s
param **.sink_073.numApps 1
param **.sink_073.app[0].typename "\"TcpGenericServerApp\""
param **.sink_073.app[0].localAddress "\"\""
param **.sink_073.app[0].localPort 1100
param **.sink_073.app[0].replyDelay 0s
param **.sink_074.numApps 1
param **.sink_074.app[0].typename "\"TcpGenericServerApp\""
param **.sink_074.app[0].localAddress "\"\""
param **.sink_074.app[0].localPort 1100
param **.sink_074.app[0].replyDelay 0s
param **.sink_075.numApps 1
param **.sink_075.app[0].typename "\"TcpGenericServerApp\""
param **.sink_075.app[0].localAddress "\"\""
param **.sink_075.app[0].localPort 1100
param **.sink_075.app[0].replyDelay 0s
param **.sink_076.numApps 1
param **.sink_076.app[0].typename "\"TcpGenericServerApp\""
param **.sink_076.app[0].localAddress "\"\""
param **.sink_076.app[0].localPort 1100
param **.sink_076.app[0].replyDelay 0s
param **.sink_077.numApps 1
param **.sink_077.app[0].typename "\"TcpGenericServerApp\""
param **.sink_077.app[0].localAddress "\"\""
param **.sink_077.app[0].localPort 1100
param **.sink_077.app[0].replyDelay 0s
param **.sink_078.numApps 1
param **.sink_078.app[0].typename "\"TcpGenericServerApp\""
param **.sink_078.app[0].localAddress "\"\""
param **.sink_078.app[0].localPort 1100
param **.sink_078.app[0].replyDelay 0s
param **.sink_079.numApps 1
param **.sink_079.app[0].typename "\"TcpGenericServerApp\""
param **.sink_079.app[0].localAddress "\"\""
param **.sink_079.app[0].localPort 1100
param **.sink_079.app[0].replyDelay 0s
param **.sink_080.numApps 1
param **.sink_080.app[0].typename "\"TcpGenericServerApp\""
param **.sink_080.app[0].localAddress "\"\""
param **.sink_080.app[0].localPort 1100
param **.sink_080.app[0].replyDelay 0s
param **.sink_081.numApps 1
param **.sink_081.app[0].typename "\"TcpGenericServerApp\""
param **.sink_081.app[0].localAddress "\"\""
param **.sink_081.app[0].localPort 1100
param **.sink_081.app[0].replyDelay 0s
param **.sink_082.numApps 1
param **.sink_082.app[0].typename "\"TcpGenericServerApp\""
param **.sink_082.app[0].localAddress "\"\""
param **.sink_082.app[0].localPort 1100
param **.sink_082.app[0].replyDelay 0s
param **.sink_083.numApps 1
param **.sink_083.app[0].typename "\"TcpGenericServerApp\""
param **.sink_083.app[0].localAddress "\"\""
param **.sink_083.app[0].localPort 1100
param **.sink_083.app[0].replyDelay 0s
param **.sink_084.numApps 1
param **.sink_084.app[0].typename "\"TcpGenericServerApp\""
param **.sink_084.app[0].localAddress "\"\""
param **.sink_084.app[0].localPort 1100
param **.sink_084.app[0].replyDelay 0s
param **.sink_085.numApps 1
param **.sink_085.app[0].typename "\"TcpGenericServerApp\""
param **.sink_085.app[0].localAddress "\"\""
param **.sink_085.app[0].localPort 1100
param **.sink_085.app[0].replyDelay 0s
param **.sink_086.numApps 1
param **.sink_086.app[0].typename "\"TcpGenericServerApp\""
param **.sink_086.app[0].localAddress "\"\""
param **.sink_086.app[0].localPort 1100
param **.sink_086.app[0].replyDelay 0s
param **.sink_087.numApps 1
param **.sink_087.app[0].typename "\"TcpGenericServerApp\""
param **.sink_087.app[0].localAddress "\"\""
param **.sink_087.app[0].localPort 1100
param **.sink_087.app[0].replyDelay 0s
param **.sink_088.numApps 1
param **.sink_088.app[0].typename "\"TcpGenericServerApp\""
param **.sink_088.app[0].localAddress "\"\""
param **.sink_088.app[0].localPort 1100
param **.sink_088.app[0].replyDelay 0s
param **.sink_089.numApps 1
param **.sink_089.app[0].typename "\"TcpGenericServerApp\""
param **.sink_089.app[0].localAddress "\"\""
param **.sink_089.app[0].localPort 1100
param **.sink_089.app[0].replyDelay 0s
param **.sink_090.numApps 1
param **.sink_090.app[0].typename "\"TcpGenericServerApp\""
param **.sink_090.app[0].localAddress "\"\""
param **.sink_090.app[0].localPort 1100
param **.sink_090.app[0].replyDelay 0s
param **.sink_091.numApps 1
param **.sink_091.app[0].typename "\"TcpGenericServerApp\""
param **.sink_091.app[0].localAddress "\"\""
param **.sink_091.app[0].localPort 1100
param **.sink_091.app[0].replyDelay 0s
param **.sink_092.numApps 1
param **.sink_092.app[0].typename "\"TcpGenericServerApp\""
param **.sink_092.app[0].localAddress "\"\""
param **.sink_092.app[0].localPort 1100
param **.sink_092.app[0].replyDelay 0s
param **.sink_093.numApps 1
param **.sink_093.app[0].typename "\"TcpGenericServerApp\""
param **.sink_093.app[0].localAddress "\"\""
param **.sink_093.app[0].localPort 1100
param **.sink_093.app[0].replyDelay 0s
param **.sink_094.numApps 1
param **.sink_094.app[0].typename "\"TcpGenericServerApp\""
param **.sink_094.app[0].localAddress "\"\""
param **.sink_094.app[0].localPort 1100
param **.sink_094.app[0].replyDelay 0s
param **.sink_095.numApps 1
param **.sink_095.app[0].typename "\"TcpGenericServerApp\""
param **.sink_095.app[0].localAddress "\"\""
param **.sink_095.app[0].localPort 1100
param **.sink_095.app[0].replyDelay 0s
param **.sink_096.numApps 1
param **.sink_096.app[0].typename "\"TcpGenericServerApp\""
param **.sink_096.app[0].localAddress "\"\""
param **.sink_096.app[0].localPort 1100
param **.sink_096.app[0].replyDelay 0s
param **.sink_097.numApps 1
param **.sink_097.app[0].typename "\"TcpGenericServerApp\""
param **.sink_097.app[0].localAddress "\"\""
param **.sink_097.app[0].localPort 1100
param **.sink_097.app[0].replyDelay 0s
param **.sink_098.numApps 1
param **.sink_098.app[0].typename "\"TcpGenericServerApp\""
param **.sink_098.app[0].localAddress "\"\""
param **.sink_098.app[0].localPort 1100
param **.sink_098.app[0].replyDelay 0s
param **.sink_099.numApps 1
param **.sink_099.app[0].typename "\"TcpGenericServerApp\""
param **.sink_099.app[0].localAddress "\"\""
param **.sink_099.app[0].localPort 1100
param **.sink_099.app[0].replyDelay 0s
param **.sink_100.numApps 1
param **.sink_100.app[0].typename "\"TcpGenericServerApp\""
param **.sink_100.app[0].localAddress "\"\""
param **.sink_100.app[0].localPort 1100
param **.sink_100.app[0].replyDelay 0s
param **.sink_101.numApps 1
param **.sink_101.app[0].typename "\"TcpGenericServerApp\""
param **.sink_101.app[0].localAddress "\"\""
param **.sink_101.app[0].localPort 1100
param **.sink_101.app[0].replyDelay 0s
param **.sink_102.numApps 1
param **.sink_102.app[0].typename "\"TcpGenericServerApp\""
param **.sink_102.app[0].localAddress "\"\""
param **.sink_102.app[0].localPort 1100
param **.sink_102.app[0].replyDelay 0s
param **.sink_103.numApps 1
param **.sink_103.app[0].typename "\"TcpGenericServerApp\""
param **.sink_103.app[0].localAddress "\"\""
param **.sink_103.app[0].localPort 1100
param **.sink_103.app[0].replyDelay 0s
param **.sink_104.numApps 1
param **.sink_104.app[0].typename "\"TcpGenericServerApp\""
param **.sink_104.app[0].localAddress "\"\""
param **.sink_104.app[0].localPort 1100
param **.sink_104.app[0].replyDelay 0s
param **.sink_105.numApps 1
param **.sink_105.app[0].typename "\"TcpGenericServerApp\""
param **.sink_105.app[0].localAddress "\"\""
param **.sink_105.app[0].localPort 1100
param **.sink_105.app[0].replyDelay 0s
param **.sink_106.numApps 1
param **.sink_106.app[0].typename "\"TcpGenericServerApp\""
param **.sink_106.app[0].localAddress "\"\""
param **.sink_106.app[0].localPort 1100
param **.sink_106.app[0].replyDelay 0s
param **.sink_107.numApps 1
param **.sink_107.app[0].typename "\"TcpGenericServerApp\""
param **.sink_107.app[0].localAddress "\"\""
param **.sink_107.app[0].localPort 1100
param **.sink_107.app[0].replyDelay 0s
param **.sink_108.numApps 1
param **.sink_108.app[0].typename "\"TcpGenericServerApp\""
param **.sink_108.app[0].localAddress "\"\""
param **.sink_108.app[0].localPort 1100
param **.sink_108.app[0].replyDelay 0s
param **.sink_109.numApps 1
param **.sink_109.app[0].typename "\"TcpGenericServerApp\""
param **.sink_109.app[0].localAddress "\"\""
param **.sink_109.app[0].localPort 1100
param **.sink_109.app[0].replyDelay 0s
param **.sink_110.numApps 1
param **.sink_110.app[0].typename "\"TcpGenericServerApp\""
param **.sink_110.app[0].localAddress "\"\""
param **.sink_110.app[0].localPort 1100
param **.sink_110.app[0].replyDelay 0s
param **.sink_111.numApps 1
param **.sink_111.app[0].typename "\"TcpGenericServerApp\""
param **.sink_111.app[0].localAddress "\"\""
param **.sink_111.app[0].localPort 1100
param **.sink_111.app[0].replyDelay 0s
param **.sink_112.numApps 1
param **.sink_112.app[0].typename "\"TcpGenericServerApp\""
param **.sink_112.app[0].localAddress "\"\""
param **.sink_112.app[0].localPort 1100
param **.sink_112.app[0].replyDelay 0s
param **.sink_113.numApps 1
param **.sink_113.app[0].typename "\"TcpGenericServerApp\""
param **.sink_113.app[0].localAddress "\"\""
param **.sink_113.app[0].localPort 1100
param **.sink_113.app[0].replyDelay 0s
param **.sink_114.numApps 1
param **.sink_114.app[0].typename "\"TcpGenericServerApp\""
param **.sink_114.app[0].localAddress "\"\""
param **.sink_114.app[0].localPort 1100
param **.sink_114.app[0].replyDelay 0s
param **.sink_115.numApps 1
param **.sink_115.app[0].typename "\"TcpGenericServerApp\""
param **.sink_115.app[0].localAddress "\"\""
param **.sink_115.app[0].localPort 1100
param **.sink_115.app[0].replyDelay 0s
param **.sink_116.numApps 1
param **.sink_116.app[0].typename "\"TcpGenericServerApp\""
param **.sink_116.app[0].localAddress "\"\""
param **.sink_116.app[0].localPort 1100
param **.sink_116.app[0].replyDelay 0s
param **.sink_117.numApps 1
param **.sink_117.app[0].typename "\"TcpGenericServerApp\""
param **.sink_117.app[0].localAddress "\"\""
param **.sink_117.app[0].localPort 1100
param **.sink_117.app[0].replyDelay 0s
param **.sink_118.numApps 1
param **.sink_118.app[0].typename "\"TcpGenericServerApp\""
param **.sink_118.app[0].localAddress "\"\""
param **.sink_118.app[0].localPort 1100
param **.sink_118.app[0].replyDelay 0s
param **.sink_119.numApps 1
param **.sink_119.app[0].typename "\"TcpGenericServerApp\""
param **.sink_119.app[0].localAddress "\"\""
param **.sink_119.app[0].localPort 1100
param **.sink_119.app[0].replyDelay 0s
param **.sink_120.numApps 1
param **.sink_120.app[0].typename "\"TcpGenericServerApp\""
param **.sink_120.app[0].localAddress "\"\""
param **.sink_120.app[0].localPort 1100
param **.sink_120.app[0].replyDelay 0s
param **.sink_121.numApps 1
param **.sink_121.app[0].typename "\"TcpGenericServerApp\""
param **.sink_121.app[0].localAddress "\"\""
param **.sink_121.app[0].localPort 1100
param **.sink_121.app[0].replyDelay 0s
param **.sink_122.numApps 1
param **.sink_122.app[0].typename "\"TcpGenericServerApp\""
param **.sink_122.app[0].localAddress "\"\""
param **.sink_122.app[0].localPort 1100
param **.sink_122.app[0].replyDelay 0s
param **.sink_123.numApps 1
param **.sink_123.app[0].typename "\"TcpGenericServerApp\""
param **.sink_123.app[0].localAddress "\"\""
param **.sink_123.app[0].localPort 1100
param **.sink_123.app[0].replyDelay 0s
param **.sink_124.numApps 1
param **.sink_124.app[0].typename "\"TcpGenericServerApp\""
param **.sink_124.app[0].localAddress "\"\""
param **.sink_124.app[0].localPort 1100
param **.sink_124.app[0].replyDelay 0s
param **.sink_125.numApps 1
param **.sink_125.app[0].typename "\"TcpGenericServerApp\""
param **.sink_125.app[0].localAddress "\"\""
param **.sink_125.app[0].localPort 1100
param **.sink_125.app[0].replyDelay 0s
param **.sink_126.numApps 1
param **.sink_126.app[0].typename "\"TcpGenericServerApp\""
param **.sink_126.app[0].localAddress "\"\""
param **.sink_126.app[0].localPort 1100
param **.sink_126.app[0].replyDelay 0s
param **.sink_127.numApps 1
param **.sink_127.app[0].typename "\"TcpGenericServerApp\""
param **.sink_127.app[0].localAddress "\"\""
param **.sink_127.app[0].localPort 1100
param **.sink_127.app[0].replyDelay 0s
param **.sink_128.numApps 1
param **.sink_128.app[0].typename "\"TcpGenericServerApp\""
param **.sink_128.app[0].localAddress "\"\""
param **.sink_128.app[0].localPort 1100
param **.sink_128.app[0].replyDelay 0s
param **.sink_129.numApps 1
param **.sink_129.app[0].typename "\"TcpGenericServerApp\""
param **.sink_129.app[0].localAddress "\"\""
param **.sink_129.app[0].localPort 1100
param **.sink_129.app[0].replyDelay 0s
param **.sink_130.numApps 1
param **.sink_130.app[0].typename "\"TcpGenericServerApp\""
param **.sink_130.app[0].localAddress "\"\""
param **.sink_130.app[0].localPort 1100
param **.sink_130.app[0].replyDelay 0s
param **.sink_131.numApps 1
param **.sink_131.app[0].typename "\"TcpGenericServerApp\""
param **.sink_131.app[0].localAddress "\"\""
param **.sink_131.app[0].localPort 1100
param **.sink_131.app[0].replyDelay 0s
param **.sink_132.numApps 1
param **.sink_132.app[0].typename "\"TcpGenericServerApp\""
param **.sink_132.app[0].localAddress "\"\""
param **.sink_132.app[0].localPort 1100
param **.sink_132.app[0].replyDelay 0s
param **.sink_133.numApps 1
param **.sink_133.app[0].typename "\"TcpGenericServerApp\""
param **.sink_133.app[0].localAddress "\"\""
param **.sink_133.app[0].localPort 1100
param **.sink_133.app[0].replyDelay 0s
param **.sink_134.numApps 1
param **.sink_134.app[0].typename "\"TcpGenericServerApp\""
param **.sink_134.app[0].localAddress "\"\""
param **.sink_134.app[0].localPort 1100
param **.sink_134.app[0].replyDelay 0s
param **.sink_135.numApps 1
param **.sink_135.app[0].typename "\"TcpGenericServerApp\""
param **.sink_135.app[0].localAddress "\"\""
param **.sink_135.app[0].localPort 1100
param **.sink_135.app[0].replyDelay 0s
param **.sink_136.numApps 1
param **.sink_136.app[0].typename "\"TcpGenericServerApp\""
param **.sink_136.app[0].localAddress "\"\""
param **.sink_136.app[0].localPort 1100
param **.sink_136.app[0].replyDelay 0s
param **.sink_137.numApps 1
param **.sink_137.app[0].typename "\"TcpGenericServerApp\""
param **.sink_137.app[0].localAddress "\"\""
param **.sink_137.app[0].localPort 1100
param **.sink_137.app[0].replyDelay 0s
param **.sink_138.numApps 1
param **.sink_138.app[0].typename "\"TcpGenericServerApp\""
param **.sink_138.app[0].localAddress "\"\""
param **.sink_138.app[0].localPort 1100
param **.sink_138.app[0].replyDelay 0s
param **.sink_139.numApps 1
param **.sink_139.app[0].typename "\"TcpGenericServerApp\""
param **.sink_139.app[0].localAddress "\"\""
param **.sink_139.app[0].localPort 1100
param **.sink_139.app[0].replyDelay 0s
param **.sink_140.numApps 1
param **.sink_140.app[0].typename "\"TcpGenericServerApp\""
param **.sink_140.app[0].localAddress "\"\""
param **.sink_140.app[0].localPort 1100
param **.sink_140.app[0].replyDelay 0s
param **.sink_141.numApps 1
param **.sink_141.app[0].typename "\"TcpGenericServerApp\""
param **.sink_141.app[0].localAddress "\"\""
param **.sink_141.app[0].localPort 1100
param **.sink_141.app[0].replyDelay 0s
param **.sink_142.numApps 1
param **.sink_142.app[0].typename "\"TcpGenericServerApp\""
param **.sink_142.app[0].localAddress "\"\""
param **.sink_142.app[0].localPort 1100
param **.sink_142.app[0].replyDelay 0s
param **.sink_143.numApps 1
param **.sink_143.app[0].typename "\"TcpGenericServerApp\""
param **.sink_143.app[0].localAddress "\"\""
param **.sink_143.app[0].localPort 1100
param **.sink_143.app[0].replyDelay 0s
param **.sink_144.numApps 1
param **.sink_144.app[0].typename "\"TcpGenericServerApp\""
param **.sink_144.app[0].localAddress "\"\""
param **.sink_144.app[0].localPort 1100
param **.sink_144.app[0].replyDelay 0s
param **.sink_145.numApps 1
param **.sink_145.app[0].typename "\"TcpGenericServerApp\""
param **.sink_145.app[0].localAddress "\"\""
param **.sink_145.app[0].localPort 1100
param **.sink_145.app[0].replyDelay 0s
param **.sink_146.numApps 1
param **.sink_146.app[0].typename "\"TcpGenericServerApp\""
param **.sink_146.app[0].localAddress "\"\""
param **.sink_146.app[0].localPort 1100
param **.sink_146.app[0].replyDelay 0s
param **.sink_147.numApps 1
param **.sink_147.app[0].typename "\"TcpGenericServerApp\""
param **.sink_147.app[0].localAddress "\"\""
param **.sink_147.app[0].localPort 1100
param **.sink_147.app[0].replyDelay 0s
param **.sink_148.numApps 1
param **.sink_148.app[0].typename "\"TcpGenericServerApp\""
param **.sink_148.app[0].localAddress "\"\""
param **.sink_148.app[0].localPort 1100
param **.sink_148.app[0].replyDelay 0s
param **.sink_149.numApps 1
param **.sink_149.app[0].typename "\"TcpGenericServerApp\""
param **.sink_149.app[0].localAddress "\"\""
param **.sink_149.app[0].localPort 1100
param **.sink_149.app[0].replyDelay 0s
param **.sink_150.numApps 1
param **.sink_150.app[0].typename "\"TcpGenericServerApp\""
param **.sink_150.app[0].localAddress "\"\""
param **.sink_150.app[0].localPort 1100
param **.sink_150.app[0].replyDelay 0s
param **.sink_151.numApps 1
param **.sink_151.app[0].typename "\"TcpGenericServerApp\""
param **.sink_151.app[0].localAddress "\"\""
param **.sink_151.app[0].localPort 1100
param **.sink_151.app[0].replyDelay 0s
param **.sink_152.numApps 1
param **.sink_152.app[0].typename "\"TcpGenericServerApp\""
param **.sink_152.app[0].localAddress "\"\""
param **.sink_152.app[0].localPort 1100
param **.sink_152.app[0].replyDelay 0s
param **.sink_153.numApps 1
param **.sink_153.app[0].typename "\"TcpGenericServerApp\""
param **.sink_153.app[0].localAddress "\"\""
param **.sink_153.app[0].localPort 1100
param **.sink_153.app[0].replyDelay 0s
param **.sink_154.numApps 1
param **.sink_154.app[0].typename "\"TcpGenericServerApp\""
param **.sink_154.app[0].localAddress "\"\""
param **.sink_154.app[0].localPort 1100
param **.sink_154.app[0].replyDelay 0s
param **.sink_155.numApps 1
param **.sink_155.app[0].typename "\"TcpGenericServerApp\""
param **.sink_155.app[0].localAddress "\"\""
param **.sink_155.app[0].localPort 1100
param **.sink_155.app[0].replyDelay 0s
param **.sink_156.numApps 1
param **.sink_156.app[0].typename "\"TcpGenericServerApp\""
param **.sink_156.app[0].localAddress "\"\""
param **.sink_156.app[0].localPort 1100
param **.sink_156.app[0].replyDelay 0s
param **.sink_157.numApps 1
param **.sink_157.app[0].typename "\"TcpGenericServerApp\""
param **.sink_157.app[0].localAddress "\"\""
param **.sink_157.app[0].localPort 1100
param **.sink_157.app[0].replyDelay 0s
param **.sink_158.numApps 1
param **.sink_158.app[0].typename "\"TcpGenericServerApp\""
param **.sink_158.app[0].localAddress "\"\""
param **.sink_158.app[0].localPort 1100
param **.sink_158.app[0].replyDelay 0s
param **.sink_159.numApps 1
param **.sink_159.app[0].typename "\"TcpGenericServerApp\""
param **.sink_159.app[0].localAddress "\"\""
param **.sink_159.app[0].localPort 1100
param **.sink_159.app[0].replyDelay 0s
param **.sink_160.numApps 1
param **.sink_160.app[0].typename "\"TcpGenericServerApp\""
param **.sink_160.app[0].localAddress "\"\""
param **.sink_160.app[0].localPort 1100
param **.sink_160.app[0].replyDelay 0s
param **.sink_161.numApps 1
param **.sink_161.app[0].typename "\"TcpGenericServerApp\""
param **.sink_161.app[0].localAddress "\"\""
param **.sink_161.app[0].localPort 1100
param **.sink_161.app[0].replyDelay 0s
param **.sink_162.numApps 1
param **.sink_162.app[0].typename "\"TcpGenericServerApp\""
param **.sink_162.app[0].localAddress "\"\""
param **.sink_162.app[0].localPort 1100
param **.sink_162.app[0].replyDelay 0s
param **.sink_163.numApps 1
param **.sink_163.app[0].typename "\"TcpGenericServerApp\""
param **.sink_163.app[0].localAddress "\"\""
param **.sink_163.app[0].localPort 1100
param **.sink_163.app[0].replyDelay 0s
param **.sink_164.numApps 1
param **.sink_164.app[0].typename "\"TcpGenericServerApp\""
param **.sink_164.app[0].localAddress "\"\""
param **.sink_164.app[0].localPort 1100
param **.sink_164.app[0].replyDelay 0s
param **.sink_165.numApps 1
param **.sink_165.app[0].typename "\"TcpGenericServerApp\""
param **.sink_165.app[0].localAddress "\"\""
param **.sink_165.app[0].localPort 1100
param **.sink_165.app[0].replyDelay 0s
param **.sink_166.numApps 1
param **.sink_166.app[0].typename "\"TcpGenericServerApp\""
param **.sink_166.app[0].localAddress "\"\""
param **.sink_166.app[0].localPort 1100
param **.sink_166.app[0].replyDelay 0s
param **.sink_167.numApps 1
param **.sink_167.app[0].typename "\"TcpGenericServerApp\""
param **.sink_167.app[0].localAddress "\"\""
param **.sink_167.app[0].localPort 1100
param **.sink_167.app[0].replyDelay 0s
param **.sink_168.numApps 1
param **.sink_168.app[0].typename "\"TcpGenericServerApp\""
param **.sink_168.app[0].localAddress "\"\""
param **.sink_168.app[0].localPort 1100
param **.sink_168.app[0].replyDelay 0s
param **.sink_169.numApps 1
param **.sink_169.app[0].typename "\"TcpGenericServerApp\""
param **.sink_169.app[0].localAddress "\"\""
param **.sink_169.app[0].localPort 1100
param **.sink_169.app[0].replyDelay 0s
param **.sink_170.numApps 1
param **.sink_170.app[0].typename "\"TcpGenericServerApp\""
param **.sink_170.app[0].localAddress "\"\""
param **.sink_170.app[0].localPort 1100
param **.sink_170.app[0].replyDelay 0s
param **.sink_171.numApps 1
param **.sink_171.app[0].typename "\"TcpGenericServerApp\""
param **.sink_171.app[0].localAddress "\"\""
param **.sink_171.app[0].localPort 1100
param **.sink_171.app[0].replyDelay 0s
param **.sink_172.numApps 1
param **.sink_172.app[0].typename "\"TcpGenericServerApp\""
param **.sink_172.app[0].localAddress "\"\""
param **.sink_172.app[0].localPort 1100
param **.sink_172.app[0].replyDelay 0s
param **.sink_173.numApps 1
param **.sink_173.app[0].typename "\"TcpGenericServerApp\""
param **.sink_173.app[0].localAddress "\"\""
param **.sink_173.app[0].localPort 1100
param **.sink_173.app[0].replyDelay 0s
param **.sink_174.numApps 1
param **.sink_174.app[0].typename "\"TcpGenericServerApp\""
param **.sink_174.app[0].localAddress "\"\""
param **.sink_174.app[0].localPort 1100
param **.sink_174.app[0].replyDelay 0s
param **.sink_175.numApps 1
param **.sink_175.app[0].typename "\"TcpGenericServerApp\""
param **.sink_175.app[0].localAddress "\"\""
param **.sink_175.app[0].localPort 1100
param **.sink_175.app[0].replyDelay 0s
param **.sink_176.numApps 1
param **.sink_176.app[0].typename "\"TcpGenericServerApp\""
param **.sink_176.app[0].localAddress "\"\""
param **.sink_176.app[0].localPort 1100
param **.sink_176.app[0].replyDelay 0s
param **.sink_177.numApps 1
param **.sink_177.app[0].typename "\"TcpGenericServerApp\""
param **.sink_177.app[0].localAddress "\"\""
param **.sink_177.app[0].localPort 1100
param **.sink_177.app[0].replyDelay 0s
param **.sink_178.numApps 1
param **.sink_178.app[0].typename "\"TcpGenericServerApp\""
param **.sink_178.app[0].localAddress "\"\""
param **.sink_178.app[0].localPort 1100
param **.sink_178.app[0].replyDelay 0s
param **.sink_179.numApps 1
param **.sink_179.app[0].typename "\"TcpGenericServerApp\""
param **.sink_179.app[0].localAddress "\"\""
param **.sink_179.app[0].localPort 1100
param **.sink_179.app[0].replyDelay 0s
param **.sink_180.numApps 1
param **.sink_180.app[0].typename "\"TcpGenericServerApp\""
param **.sink_180.app[0].localAddress "\"\""
param **.sink_180.app[0].localPort 1100
param **.sink_180.app[0].replyDelay 0s
param **.sink_181.numApps 1
param **.sink_181.app[0].typename "\"TcpGenericServerApp\""
param **.sink_181.app[0].localAddress "\"\""
param **.sink_181.app[0].localPort 1100
param **.sink_181.app[0].replyDelay 0s
param **.sink_182.numApps 1
param **.sink_182.app[0].typename "\"TcpGenericServerApp\""
param **.sink_182.app[0].localAddress "\"\""
param **.sink_182.app[0].localPort 1100
param **.sink_182.app[0].replyDelay 0s
param **.sink_183.numApps 1
param **.sink_183.app[0].typename "\"TcpGenericServerApp\""
param **.sink_183.app[0].localAddress "\"\""
param **.sink_183.app[0].localPort 1100
param **.sink_183.app[0].replyDelay 0s
param **.sink_184.numApps 1
param **.sink_184.app[0].typename "\"TcpGenericServerApp\""
param **.sink_184.app[0].localAddress "\"\""
param **.sink_184.app[0].localPort 1100
param **.sink_184.app[0].replyDelay 0s
param **.sink_185.numApps 1
param **.sink_185.app[0].typename "\"TcpGenericServerApp\""
param **.sink_185.app[0].localAddress "\"\""
param **.sink_185.app[0].localPort 1100
param **.sink_185.app[0].replyDelay 0s
param **.sink_186.numApps 1
param **.sink_186.app[0].typename "\"TcpGenericServerApp\""
param **.sink_186.app[0].localAddress "\"\""
param **.sink_186.app[0].localPort 1100
param **.sink_186.app[0].replyDelay 0s
param **.sink_187.numApps 1
param **.sink_187.app[0].typename "\"TcpGenericServerApp\""
param **.sink_187.app[0].localAddress "\"\""
param **.sink_187.app[0].localPort 1100
param **.sink_187.app[0].replyDelay 0s
param **.sink_188.numApps 1
param **.sink_188.app[0].typename "\"TcpGenericServerApp\""
param **.sink_188.app[0].localAddress "\"\""
param **.sink_188.app[0].localPort 1100
param **.sink_188.app[0].replyDelay 0s
param **.sink_189.numApps 1
param **.sink_189.app[0].typename "\"TcpGenericServerApp\""
param **.sink_189.app[0].localAddress "\"\""
param **.sink_189.app[0].localPort 1100
param **.sink_189.app[0].replyDelay 0s
param **.sink_190.numApps 1
param **.sink_190.app[0].typename "\"TcpGenericServerApp\""
param **.sink_190.app[0].localAddress "\"\""
param **.sink_190.app[0].localPort 1100
param **.sink_190.app[0].replyDelay 0s
param **.sink_191.numApps 1
param **.sink_191.app[0].typename "\"TcpGenericServerApp\""
param **.sink_191.app[0].localAddress "\"\""
param **.sink_191.app[0].localPort 1100
param **.sink_191.app[0].replyDelay 0s
param **.sink_192.numApps 1
param **.sink_192.app[0].typename "\"TcpGenericServerApp\""
param **.sink_192.app[0].localAddress "\"\""
param **.sink_192.app[0].localPort 1100
param **.sink_192.app[0].replyDelay 0s
param **.sink_193.numApps 1
param **.sink_193.app[0].typename "\"TcpGenericServerApp\""
param **.sink_193.app[0].localAddress "\"\""
param **.sink_193.app[0].localPort 1100
param **.sink_193.app[0].replyDelay 0s
param **.sink_194.numApps 1
param **.sink_194.app[0].typename "\"TcpGenericServerApp\""
param **.sink_194.app[0].localAddress "\"\""
param **.sink_194.app[0].localPort 1100
param **.sink_194.app[0].replyDelay 0s
param **.sink_195.numApps 1
param **.sink_195.app[0].typename "\"TcpGenericServerApp\""
param **.sink_195.app[0].localAddress "\"\""
param **.sink_195.app[0].localPort 1100
param **.sink_195.app[0].replyDelay 0s
param **.sink_196.numApps 1
param **.sink_196.app[0].typename "\"TcpGenericServerApp\""
param **.sink_196.app[0].localAddress "\"\""
param **.sink_196.app[0].localPort 1100
param **.sink_196.app[0].replyDelay 0s
param **.sink_197.numApps 1
param **.sink_197.app[0].typename "\"TcpGenericServerApp\""
param **.sink_197.app[0].localAddress "\"\""
param **.sink_197.app[0].localPort 1100
param **.sink_197.app[0].replyDelay 0s
param **.sink_198.numApps 1
param **.sink_198.app[0].typename "\"TcpGenericServerApp\""
param **.sink_198.app[0].localAddress "\"\""
param **.sink_198.app[0].localPort 1100
param **.sink_198.app[0].replyDelay 0s
param **.sink_199.numApps 1
param **.sink_199.app[0].typename "\"TcpGenericServerApp\""
param **.sink_199.app[0].localAddress "\"\""
param **.sink_199.app[0].localPort 1100
param **.sink_199.app[0].replyDelay 0s
param **.sink_200.numApps 1
param **.sink_200.app[0].typename "\"TcpGenericServerApp\""
param **.sink_200.app[0].localAddress "\"\""
param **.sink_200.app[0].localPort 1100
param **.sink_200.app[0].replyDelay 0s
param **.sink_201.numApps 1
param **.sink_201.app[0].typename "\"TcpGenericServerApp\""
param **.sink_201.app[0].localAddress "\"\""
param **.sink_201.app[0].localPort 1100
param **.sink_201.app[0].replyDelay 0s
param **.sink_202.numApps 1
param **.sink_202.app[0].typename "\"TcpGenericServerApp\""
param **.sink_202.app[0].localAddress "\"\""
param **.sink_202.app[0].localPort 1100
param **.sink_202.app[0].replyDelay 0s
param **.sink_203.numApps 1
param **.sink_203.app[0].typename "\"TcpGenericServerApp\""
param **.sink_203.app[0].localAddress "\"\""
param **.sink_203.app[0].localPort 1100
param **.sink_203.app[0].replyDelay 0s
param **.sink_204.numApps 1
param **.sink_204.app[0].typename "\"TcpGenericServerApp\""
param **.sink_204.app[0].localAddress "\"\""
param **.sink_204.app[0].localPort 1100
param **.sink_204.app[0].replyDelay 0s
param **.sink_205.numApps 1
param **.sink_205.app[0].typename "\"TcpGenericServerApp\""
param **.sink_205.app[0].localAddress "\"\""
param **.sink_205.app[0].localPort 1100
param **.sink_205.app[0].replyDelay 0s
param **.sink_206.numApps 1
param **.sink_206.app[0].typename "\"TcpGenericServerApp\""
param **.sink_206.app[0].localAddress "\"\""
param **.sink_206.app[0].localPort 1100
param **.sink_206.app[0].replyDelay 0s
param **.sink_207.numApps 1
param **.sink_207.app[0].typename "\"TcpGenericServerApp\""
param **.sink_207.app[0].localAddress "\"\""
param **.sink_207.app[0].localPort 1100
param **.sink_207.app[0].replyDelay 0s
param **.sink_208.numApps 1
param **.sink_208.app[0].typename "\"TcpGenericServerApp\""
param **.sink_208.app[0].localAddress "\"\""
param **.sink_208.app[0].localPort 1100
param **.sink_208.app[0].replyDelay 0s
param **.sink_209.numApps 1
param **.sink_209.app[0].typename "\"TcpGenericServerApp\""
param **.sink_209.app[0].localAddress "\"\""
param **.sink_209.app[0].localPort 1100
param **.sink_209.app[0].replyDelay 0s
param **.sink_210.numApps 1
param **.sink_210.app[0].typename "\"TcpGenericServerApp\""
param **.sink_210.app[0].localAddress "\"\""
param **.sink_210.app[0].localPort 1100
param **.sink_210.app[0].replyDelay 0s
param **.sink_211.numApps 1
param **.sink_211.app[0].typename "\"TcpGenericServerApp\""
param **.sink_211.app[0].localAddress "\"\""
param **.sink_211.app[0].localPort 1100
param **.sink_211.app[0].replyDelay 0s
param **.sink_212.numApps 1
param **.sink_212.app[0].typename "\"TcpGenericServerApp\""
param **.sink_212.app[0].localAddress "\"\""
param **.sink_212.app[0].localPort 1100
param **.sink_212.app[0].replyDelay 0s
param **.sink_213.numApps 1
param **.sink_213.app[0].typename "\"TcpGenericServerApp\""
param **.sink_213.app[0].localAddress "\"\""
param **.sink_213.app[0].localPort 1100
param **.sink_213.app[0].replyDelay 0s
param **.sink_214.numApps 1
param **.sink_214.app[0].typename "\"TcpGenericServerApp\""
param **.sink_214.app[0].localAddress "\"\""
param **.sink_214.app[0].localPort 1100
param **.sink_214.app[0].replyDelay 0s
param **.sink_215.numApps 1
param **.sink_215.app[0].typename "\"TcpGenericServerApp\""
param **.sink_215.app[0].localAddress "\"\""
param **.sink_215.app[0].localPort 1100
param **.sink_215.app[0].replyDelay 0s
param **.sink_216.numApps 1
param **.sink_216.app[0].typename "\"TcpGenericServerApp\""
param **.sink_216.app[0].localAddress "\"\""
param **.sink_216.app[0].localPort 1100
param **.sink_216.app[0].replyDelay 0s
param **.sink_217.numApps 1
param **.sink_217.app[0].typename "\"TcpGenericServerApp\""
param **.sink_217.app[0].localAddress "\"\""
param **.sink_217.app[0].localPort 1100
param **.sink_217.app[0].replyDelay 0s
param **.sink_218.numApps 1
param **.sink_218.app[0].typename "\"TcpGenericServerApp\""
param **.sink_218.app[0].localAddress "\"\""
param **.sink_218.app[0].localPort 1100
param **.sink_218.app[0].replyDelay 0s
param **.sink_219.numApps 1
param **.sink_219.app[0].typename "\"TcpGenericServerApp\""
param **.sink_219.app[0].localAddress "\"\""
param **.sink_219.app[0].localPort 1100
param **.sink_219.app[0].replyDelay 0s
param **.sink_220.numApps 1
param **.sink_220.app[0].typename "\"TcpGenericServerApp\""
param **.sink_220.app[0].localAddress "\"\""
param **.sink_220.app[0].localPort 1100
param **.sink_220.app[0].replyDelay 0s
param **.sink_221.numApps 1
param **.sink_221.app[0].typename "\"TcpGenericServerApp\""
param **.sink_221.app[0].localAddress "\"\""
param **.sink_221.app[0].localPort 1100
param **.sink_221.app[0].replyDelay 0s
param **.sink_222.numApps 1
param **.sink_222.app[0].typename "\"TcpGenericServerApp\""
param **.sink_222.app[0].localAddress "\"\""
param **.sink_222.app[0].localPort 1100
param **.sink_222.app[0].replyDelay 0s
param **.sink_223.numApps 1
param **.sink_223.app[0].typename "\"TcpGenericServerApp\""
param **.sink_223.app[0].localAddress "\"\""
param **.sink_223.app[0].localPort 1100
param **.sink_223.app[0].replyDelay 0s
param **.sink_224.numApps 1
param **.sink_224.app[0].typename "\"TcpGenericServerApp\""
param **.sink_224.app[0].localAddress "\"\""
param **.sink_224.app[0].localPort 1100
param **.sink_224.app[0].replyDelay 0s
param **.sink_225.numApps 1
param **.sink_225.app[0].typename "\"TcpGenericServerApp\""
param **.sink_225.app[0].localAddress "\"\""
param **.sink_225.app[0].localPort 1100
param **.sink_225.app[0].replyDelay 0s
param **.sink_226.numApps 1
param **.sink_226.app[0].typename "\"TcpGenericServerApp\""
param **.sink_226.app[0].localAddress "\"\""
param **.sink_226.app[0].localPort 1100
param **.sink_226.app[0].replyDelay 0s
param **.sink_227.numApps 1
param **.sink_227.app[0].typename "\"TcpGenericServerApp\""
param **.sink_227.app[0].localAddress "\"\""
param **.sink_227.app[0].localPort 1100
param **.sink_227.app[0].replyDelay 0s
param **.sink_228.numApps 1
param **.sink_228.app[0].typename "\"TcpGenericServerApp\""
param **.sink_228.app[0].localAddress "\"\""
param **.sink_228.app[0].localPort 1100
param **.sink_228.app[0].replyDelay 0s
param **.sink_229.numApps 1
param **.sink_229.app[0].typename "\"TcpGenericServerApp\""
param **.sink_229.app[0].localAddress "\"\""
param **.sink_229.app[0].localPort 1100
param **.sink_229.app[0].replyDelay 0s
param **.sink_230.numApps 1
param **.sink_230.app[0].typename "\"TcpGenericServerApp\""
param **.sink_230.app[0].localAddress "\"\""
param **.sink_230.app[0].localPort 1100
param **.sink_230.app[0].replyDelay 0s
param **.sink_231.numApps 1
param **.sink_231.app[0].typename "\"TcpGenericServerApp\""
param **.sink_231.app[0].localAddress "\"\""
param **.sink_231.app[0].localPort 1100
param **.sink_231.app[0].replyDelay 0s
param **.sink_232.numApps 1
param **.sink_232.app[0].typename "\"TcpGenericServerApp\""
param **.sink_232.app[0].localAddress "\"\""
param **.sink_232.app[0].localPort 1100
param **.sink_232.app[0].replyDelay 0s
param **.sink_233.numApps 1
param **.sink_233.app[0].typename "\"TcpGenericServerApp\""
param **.sink_233.app[0].localAddress "\"\""
param **.sink_233.app[0].localPort 1100
param **.sink_233.app[0].replyDelay 0s
param **.sink_234.numApps 1
param **.sink_234.app[0].typename "\"TcpGenericServerApp\""
param **.sink_234.app[0].localAddress "\"\""
param **.sink_234.app[0].localPort 1100
param **.sink_234.app[0].replyDelay 0s
param **.sink_235.numApps 1
param **.sink_235.app[0].typename "\"TcpGenericServerApp\""
param **.sink_235.app[0].localAddress "\"\""
param **.sink_235.app[0].localPort 1100
param **.sink_235.app[0].replyDelay 0s
param **.sink_236.numApps 1
param **.sink_236.app[0].typename "\"TcpGenericServerApp\""
param **.sink_236.app[0].localAddress "\"\""
param **.sink_236.app[0].localPort 1100
param **.sink_236.app[0].replyDelay 0s
param **.sink_237.numApps 1
param **.sink_237.app[0].typename "\"TcpGenericServerApp\""
param **.sink_237.app[0].localAddress "\"\""
param **.sink_237.app[0].localPort 1100
param **.sink_237.app[0].replyDelay 0s
param **.sink_238.numApps 1
param **.sink_238.app[0].typename "\"TcpGenericServerApp\""
param **.sink_238.app[0].localAddress "\"\""
param **.sink_238.app[0].localPort 1100
param **.sink_238.app[0].replyDelay 0s
param **.sink_239.numApps 1
param **.sink_239.app[0].typename "\"TcpGenericServerApp\""
param **.sink_239.app[0].localAddress "\"\""
param **.sink_239.app[0].localPort 1100
param **.sink_239.app[0].replyDelay 0s
param **.sink_240.numApps 1
param **.sink_240.app[0].typename "\"TcpGenericServerApp\""
param **.sink_240.app[0].localAddress "\"\""
param **.sink_240.app[0].localPort 1100
param **.sink_240.app[0].replyDelay 0s
param **.sink_241.numApps 1
param **.sink_241.app[0].typename "\"TcpGenericServerApp\""
param **.sink_241.app[0].localAddress "\"\""
param **.sink_241.app[0].localPort 1100
param **.sink_241.app[0].replyDelay 0s
param **.sink_242.numApps 1
param **.sink_242.app[0].typename "\"TcpGenericServerApp\""
param **.sink_242.app[0].localAddress "\"\""
param **.sink_242.app[0].localPort 1100
param **.sink_242.app[0].replyDelay 0s
param **.sink_243.numApps 1
param **.sink_243.app[0].typename "\"TcpGenericServerApp\""
param **.sink_243.app[0].localAddress "\"\""
param **.sink_243.app[0].localPort 1100
param **.sink_243.app[0].replyDelay 0s
param **.sink_244.numApps 1
param **.sink_244.app[0].typename "\"TcpGenericServerApp\""
param **.sink_244.app[0].localAddress "\"\""
param **.sink_244.app[0].localPort 1100
param **.sink_244.app[0].replyDelay 0s
param **.sink_245.numApps 1
param **.sink_245.app[0].typename "\"TcpGenericServerApp\""
param **.sink_245.app[0].localAddress "\"\""
param **.sink_245.app[0].localPort 1100
param **.sink_245.app[0].replyDelay 0s
param **.sink_246.numApps 1
param **.sink_246.app[0].typename "\"TcpGenericServerApp\""
param **.sink_246.app[0].localAddress "\"\""
param **.sink_246.app[0].localPort 1100
param **.sink_246.app[0].replyDelay 0s
param **.sink_247.numApps 1
param **.sink_247.app[0].typename "\"TcpGenericServerApp\""
param **.sink_247.app[0].localAddress "\"\""
param **.sink_247.app[0].localPort 1100
param **.sink_247.app[0].replyDelay 0s
param **.sink_248.numApps 1
param **.sink_248.app[0].typename "\"TcpGenericServerApp\""
param **.sink_248.app[0].localAddress "\"\""
param **.sink_248.app[0].localPort 1100
param **.sink_248.app[0].replyDelay 0s
param **.sink_249.numApps 1
param **.sink_249.app[0].typename "\"TcpGenericServerApp\""
param **.sink_249.app[0].localAddress "\"\""
param **.sink_249.app[0].localPort 1100
param **.sink_249.app[0].replyDelay 0s
param **.sink_250.numApps 1
param **.sink_250.app[0].typename "\"TcpGenericServerApp\""
param **.sink_250.app[0].localAddress "\"\""
param **.sink_250.app[0].localPort 1100
param **.sink_250.app[0].replyDelay 0s
param **.sink_251.numApps 1
param **.sink_251.app[0].typename "\"TcpGenericServerApp\""
param **.sink_251.app[0].localAddress "\"\""
param **.sink_251.app[0].localPort 1100
param **.sink_251.app[0].replyDelay 0s
param **.sink_252.numApps 1
param **.sink_252.app[0].typename "\"TcpGenericServerApp\""
param **.sink_252.app[0].localAddress "\"\""
param **.sink_252.app[0].localPort 1100
param **.sink_252.app[0].replyDelay 0s
param **.sink_253.numApps 1
param **.sink_253.app[0].typename "\"TcpGenericServerApp\""
param **.sink_253.app[0].localAddress "\"\""
param **.sink_253.app[0].localPort 1100
param **.sink_253.app[0].replyDelay 0s
param **.sink_254.numApps 1
param **.sink_254.app[0].typename "\"TcpGenericServerApp\""
param **.sink_254.app[0].localAddress "\"\""
param **.sink_254.app[0].localPort 1100
param **.sink_254.app[0].replyDelay 0s
param **.sink_255.numApps 1
param **.sink_255.app[0].typename "\"TcpGenericServerApp\""
param **.sink_255.app[0].localAddress "\"\""
param **.sink_255.app[0].localPort 1100
param **.sink_255.app[0].replyDelay 0s
param **.sink_256.numApps 1
param **.sink_256.app[0].typename "\"TcpGenericServerApp\""
param **.sink_256.app[0].localAddress "\"\""
param **.sink_256.app[0].localPort 1100
param **.sink_256.app[0].replyDelay 0s
param **.sink_257.numApps 1
param **.sink_257.app[0].typename "\"TcpGenericServerApp\""
param **.sink_257.app[0].localAddress "\"\""
param **.sink_257.app[0].localPort 1100
param **.sink_257.app[0].replyDelay 0s
param **.sink_258.numApps 1
param **.sink_258.app[0].typename "\"TcpGenericServerApp\""
param **.sink_258.app[0].localAddress "\"\""
param **.sink_258.app[0].localPort 1100
param **.sink_258.app[0].replyDelay 0s
param **.sink_259.numApps 1
param **.sink_259.app[0].typename "\"TcpGenericServerApp\""
param **.sink_259.app[0].localAddress "\"\""
param **.sink_259.app[0].localPort 1100
param **.sink_259.app[0].replyDelay 0s
param **.sink_260.numApps 1
param **.sink_260.app[0].typename "\"TcpGenericServerApp\""
param **.sink_260.app[0].localAddress "\"\""
param **.sink_260.app[0].localPort 1100
param **.sink_260.app[0].replyDelay 0s
param **.sink_261.numApps 1
param **.sink_261.app[0].typename "\"TcpGenericServerApp\""
param **.sink_261.app[0].localAddress "\"\""
param **.sink_261.app[0].localPort 1100
param **.sink_261.app[0].replyDelay 0s
param **.sink_262.numApps 1
param **.sink_262.app[0].typename "\"TcpGenericServerApp\""
param **.sink_262.app[0].localAddress "\"\""
param **.sink_262.app[0].localPort 1100
param **.sink_262.app[0].replyDelay 0s
param **.sink_263.numApps 1
param **.sink_263.app[0].typename "\"TcpGenericServerApp\""
param **.sink_263.app[0].localAddress "\"\""
param **.sink_263.app[0].localPort 1100
param **.sink_263.app[0].replyDelay 0s
param **.sink_264.numApps 1
param **.sink_264.app[0].typename "\"TcpGenericServerApp\""
param **.sink_264.app[0].localAddress "\"\""
param **.sink_264.app[0].localPort 1100
param **.sink_264.app[0].replyDelay 0s
param **.sink_265.numApps 1
param **.sink_265.app[0].typename "\"TcpGenericServerApp\""
param **.sink_265.app[0].localAddress "\"\""
param **.sink_265.app[0].localPort 1100
param **.sink_265.app[0].replyDelay 0s
param **.sink_266.numApps 1
param **.sink_266.app[0].typename "\"TcpGenericServerApp\""
param **.sink_266.app[0].localAddress "\"\""
param **.sink_266.app[0].localPort 1100
param **.sink_266.app[0].replyDelay 0s
param **.sink_267.numApps 1
param **.sink_267.app[0].typename "\"TcpGenericServerApp\""
param **.sink_267.app[0].localAddress "\"\""
param **.sink_267.app[0].localPort 1100
param **.sink_267.app[0].replyDelay 0s
param **.sink_268.numApps 1
param **.sink_268.app[0].typename "\"TcpGenericServerApp\""
param **.sink_268.app[0].localAddress "\"\""
param **.sink_268.app[0].localPort 1100
param **.sink_268.app[0].replyDelay 0s
param **.sink_269.numApps 1
param **.sink_269.app[0].typename "\"TcpGenericServerApp\""
param **.sink_269.app[0].localAddress "\"\""
param **.sink_269.app[0].localPort 1100
param **.sink_269.app[0].replyDelay 0s
param **.sink_270.numApps 1
param **.sink_270.app[0].typename "\"TcpGenericServerApp\""
param **.sink_270.app[0].localAddress "\"\""
param **.sink_270.app[0].localPort 1100
param **.sink_270.app[0].replyDelay 0s
param **.sink_271.numApps 1
param **.sink_271.app[0].typename "\"TcpGenericServerApp\""
param **.sink_271.app[0].localAddress "\"\""
param **.sink_271.app[0].localPort 1100
param **.sink_271.app[0].replyDelay 0s
param **.sink_272.numApps 1
param **.sink_272.app[0].typename "\"TcpGenericServerApp\""
param **.sink_272.app[0].localAddress "\"\""
param **.sink_272.app[0].localPort 1100
param **.sink_272.app[0].replyDelay 0s
param **.sink_273.numApps 1
param **.sink_273.app[0].typename "\"TcpGenericServerApp\""
param **.sink_273.app[0].localAddress "\"\""
param **.sink_273.app[0].localPort 1100
param **.sink_273.app[0].replyDelay 0s
param **.sink_274.numApps 1
param **.sink_274.app[0].typename "\"TcpGenericServerApp\""
param **.sink_274.app[0].localAddress "\"\""
param **.sink_274.app[0].localPort 1100
param **.sink_274.app[0].replyDelay 0s
param **.sink_275.numApps 1
param **.sink_275.app[0].typename "\"TcpGenericServerApp\""
param **.sink_275.app[0].localAddress "\"\""
param **.sink_275.app[0].localPort 1100
param **.sink_275.app[0].replyDelay 0s
param **.sink_276.numApps 1
param **.sink_276.app[0].typename "\"TcpGenericServerApp\""
param **.sink_276.app[0].localAddress "\"\""
param **.sink_276.app[0].localPort 1100
param **.sink_276.app[0].replyDelay 0s
param **.sink_277.numApps 1
param **.sink_277.app[0].typename "\"TcpGenericServerApp\""
param **.sink_277.app[0].localAddress "\"\""
param **.sink_277.app[0].localPort 1100
param **.sink_277.app[0].replyDelay 0s
param **.sink_278.numApps 1
param **.sink_278.app[0].typename "\"TcpGenericServerApp\""
param **.sink_278.app[0].localAddress "\"\""
param **.sink_278.app[0].localPort 1100
param **.sink_278.app[0].replyDelay 0s
param **.sink_279.numApps 1
param **.sink_279.app[0].typename "\"TcpGenericServerApp\""
param **.sink_279.app[0].localAddress "\"\""
param **.sink_279.app[0].localPort 1100
param **.sink_279.app[0].replyDelay 0s
param **.sink_280.numApps 1
param **.sink_280.app[0].typename "\"TcpGenericServerApp\""
param **.sink_280.app[0].localAddress "\"\""
param **.sink_280.app[0].localPort 1100
param **.sink_280.app[0].replyDelay 0s
param **.sink_281.numApps 1
param **.sink_281.app[0].typename "\"TcpGenericServerApp\""
param **.sink_281.app[0].localAddress "\"\""
param **.sink_281.app[0].localPort 1100
param **.sink_281.app[0].replyDelay 0s
param **.sink_282.numApps 1
param **.sink_282.app[0].typename "\"TcpGenericServerApp\""
param **.sink_282.app[0].localAddress "\"\""
param **.sink_282.app[0].localPort 1100
param **.sink_282.app[0].replyDelay 0s
param **.sink_283.numApps 1
param **.sink_283.app[0].typename "\"TcpGenericServerApp\""
param **.sink_283.app[0].localAddress "\"\""
param **.sink_283.app[0].localPort 1100
param **.sink_283.app[0].replyDelay 0s
param **.sink_284.numApps 1
param **.sink_284.app[0].typename "\"TcpGenericServerApp\""
param **.sink_284.app[0].localAddress "\"\""
param **.sink_284.app[0].localPort 1100
param **.sink_284.app[0].replyDelay 0s
param **.sink_285.numApps 1
param **.sink_285.app[0].typename "\"TcpGenericServerApp\""
param **.sink_285.app[0].localAddress "\"\""
param **.sink_285.app[0].localPort 1100
param **.sink_285.app[0].replyDelay 0s
param **.sink_286.numApps 1
param **.sink_286.app[0].typename "\"TcpGenericServerApp\""
param **.sink_286.app[0].localAddress "\"\""
param **.sink_286.app[0].localPort 1100
param **.sink_286.app[0].replyDelay 0s
param **.sink_287.numApps 1
param **.sink_287.app[0].typename "\"TcpGenericServerApp\""
param **.sink_287.app[0].localAddress "\"\""
param **.sink_287.app[0].localPort 1100
param **.sink_287.app[0].replyDelay 0s
param **.sink_288.numApps 1
param **.sink_288.app[0].typename "\"TcpGenericServerApp\""
param **.sink_288.app[0].localAddress "\"\""
param **.sink_288.app[0].localPort 1100
param **.sink_288.app[0].replyDelay 0s
param **.sink_289.numApps 1
param **.sink_289.app[0].typename "\"TcpGenericServerApp\""
param **.sink_289.app[0].localAddress "\"\""
param **.sink_289.app[0].localPort 1100
param **.sink_289.app[0].replyDelay 0s
param **.sink_290.numApps 1
param **.sink_290.app[0].typename "\"TcpGenericServerApp\""
param **.sink_290.app[0].localAddress "\"\""
param **.sink_290.app[0].localPort 1100
param **.sink_290.app[0].replyDelay 0s
param **.sink_291.numApps 1
param **.sink_291.app[0].typename "\"TcpGenericServerApp\""
param **.sink_291.app[0].localAddress "\"\""
param **.sink_291.app[0].localPort 1100
param **.sink_291.app[0].replyDelay 0s
param **.sink_292.numApps 1
param **.sink_292.app[0].typename "\"TcpGenericServerApp\""
param **.sink_292.app[0].localAddress "\"\""
param **.sink_292.app[0].localPort 1100
param **.sink_292.app[0].replyDelay 0s
param **.sink_293.numApps 1
param **.sink_293.app[0].typename "\"TcpGenericServerApp\""
param **.sink_293.app[0].localAddress "\"\""
param **.sink_293.app[0].localPort 1100
param **.sink_293.app[0].replyDelay 0s
param **.sink_294.numApps 1
param **.sink_294.app[0].typename "\"TcpGenericServerApp\""
param **.sink_294.app[0].localAddress "\"\""
param **.sink_294.app[0].localPort 1100
param **.sink_294.app[0].replyDelay 0s
param **.sink_295.numApps 1
param **.sink_295.app[0].typename "\"TcpGenericServerApp\""
param **.sink_295.app[0].localAddress "\"\""
param **.sink_295.app[0].localPort 1100
param **.sink_295.app[0].replyDelay 0s
param **.sink_296.numApps 1
param **.sink_296.app[0].typename "\"TcpGenericServerApp\""
param **.sink_296.app[0].localAddress "\"\""
param **.sink_296.app[0].localPort 1100
param **.sink_296.app[0].replyDelay 0s
param **.sink_297.numApps 1
param **.sink_297.app[0].typename "\"TcpGenericServerApp\""
param **.sink_297.app[0].localAddress "\"\""
param **.sink_297.app[0].localPort 1100
param **.sink_297.app[0].replyDelay 0s
param **.sink_298.numApps 1
param **.sink_298.app[0].typename "\"TcpGenericServerApp\""
param **.sink_298.app[0].localAddress "\"\""
param **.sink_298.app[0].localPort 1100
param **.sink_298.app[0].replyDelay 0s
param **.sink_299.numApps 1
param **.sink_299.app[0].typename "\"TcpGenericServerApp\""
param **.sink_299.app[0].localAddress "\"\""
param **.sink_299.app[0].localPort 1100
param **.sink_299.app[0].replyDelay 0s
param **.sink_300.numApps 1
param **.sink_300.app[0].typename "\"TcpGenericServerApp\""
param **.sink_300.app[0].localAddress "\"\""
param **.sink_300.app[0].localPort 1100
param **.sink_300.app[0].replyDelay 0s
param **.sink_301.numApps 1
param **.sink_301.app[0].typename "\"TcpGenericServerApp\""
param **.sink_301.app[0].localAddress "\"\""
param **.sink_301.app[0].localPort 1100
param **.sink_301.app[0].replyDelay 0s
param **.sink_302.numApps 1
param **.sink_302.app[0].typename "\"TcpGenericServerApp\""
param **.sink_302.app[0].localAddress "\"\""
param **.sink_302.app[0].localPort 1100
param **.sink_302.app[0].replyDelay 0s
param **.sink_303.numApps 1
param **.sink_303.app[0].typename "\"TcpGenericServerApp\""
param **.sink_303.app[0].localAddress "\"\""
param **.sink_303.app[0].localPort 1100
param **.sink_303.app[0].replyDelay 0s
param **.sink_304.numApps 1
param **.sink_304.app[0].typename "\"TcpGenericServerApp\""
param **.sink_304.app[0].localAddress "\"\""
param **.sink_304.app[0].localPort 1100
param **.sink_304.app[0].replyDelay 0s
param **.sink_305.numApps 1
param **.sink_305.app[0].typename "\"TcpGenericServerApp\""
param **.sink_305.app[0].localAddress "\"\""
param **.sink_305.app[0].localPort 1100
param **.sink_305.app[0].replyDelay 0s
param **.sink_306.numApps 1
param **.sink_306.app[0].typename "\"TcpGenericServerApp\""
param **.sink_306.app[0].localAddress "\"\""
param **.sink_306.app[0].localPort 1100
param **.sink_306.app[0].replyDelay 0s
param **.sink_307.numApps 1
param **.sink_307.app[0].typename "\"TcpGenericServerApp\""
param **.sink_307.app[0].localAddress "\"\""
param **.sink_307.app[0].localPort 1100
param **.sink_307.app[0].replyDelay 0s
param **.sink_308.numApps 1
param **.sink_308.app[0].typename "\"TcpGenericServerApp\""
param **.sink_308.app[0].localAddress "\"\""
param **.sink_308.app[0].localPort 1100
param **.sink_308.app[0].replyDelay 0s
param **.sink_309.numApps 1
param **.sink_309.app[0].typename "\"TcpGenericServerApp\""
param **.sink_309.app[0].localAddress "\"\""
param **.sink_309.app[0].localPort 1100
param **.sink_309.app[0].replyDelay 0s
param **.sink_310.numApps 1
param **.sink_310.app[0].typename "\"TcpGenericServerApp\""
param **.sink_310.app[0].localAddress "\"\""
param **.sink_310.app[0].localPort 1100
param **.sink_310.app[0].replyDelay 0s
param **.sink_311.numApps 1
param **.sink_311.app[0].typename "\"TcpGenericServerApp\""
param **.sink_311.app[0].localAddress "\"\""
param **.sink_311.app[0].localPort 1100
param **.sink_311.app[0].replyDelay 0s
param **.sink_312.numApps 1
param **.sink_312.app[0].typename "\"TcpGenericServerApp\""
param **.sink_312.app[0].localAddress "\"\""
param **.sink_312.app[0].localPort 1100
param **.sink_312.app[0].replyDelay 0s
param **.sink_313.numApps 1
param **.sink_313.app[0].typename "\"TcpGenericServerApp\""
param **.sink_313.app[0].localAddress "\"\""
param **.sink_313.app[0].localPort 1100
param **.sink_313.app[0].replyDelay 0s
param **.sink_314.numApps 1
param **.sink_314.app[0].typename "\"TcpGenericServerApp\""
param **.sink_314.app[0].localAddress "\"\""
param **.sink_314.app[0].localPort 1100
param **.sink_314.app[0].replyDelay 0s
param **.sink_315.numApps 1
param **.sink_315.app[0].typename "\"TcpGenericServerApp\""
param **.sink_315.app[0].localAddress "\"\""
param **.sink_315.app[0].localPort 1100
param **.sink_315.app[0].replyDelay 0s
param **.sink_316.numApps 1
param **.sink_316.app[0].typename "\"TcpGenericServerApp\""
param **.sink_316.app[0].localAddress "\"\""
param **.sink_316.app[0].localPort 1100
param **.sink_316.app[0].replyDelay 0s
param **.sink_317.numApps 1
param **.sink_317.app[0].typename "\"TcpGenericServerApp\""
param **.sink_317.app[0].localAddress "\"\""
param **.sink_317.app[0].localPort 1100
param **.sink_317.app[0].replyDelay 0s
param **.sink_318.numApps 1
param **.sink_318.app[0].typename "\"TcpGenericServerApp\""
param **.sink_318.app[0].localAddress "\"\""
param **.sink_318.app[0].localPort 1100
param **.sink_318.app[0].replyDelay 0s
param **.sink_319.numApps 1
param **.sink_319.app[0].typename "\"TcpGenericServerApp\""
param **.sink_319.app[0].localAddress "\"\""
param **.sink_319.app[0].localPort 1100
param **.sink_319.app[0].replyDelay 0s
param **.sink_320.numApps 1
param **.sink_320.app[0].typename "\"TcpGenericServerApp\""
param **.sink_320.app[0].localAddress "\"\""
param **.sink_320.app[0].localPort 1100
param **.sink_320.app[0].replyDelay 0s
param **.sink_321.numApps 1
param **.sink_321.app[0].typename "\"TcpGenericServerApp\""
param **.sink_321.app[0].localAddress "\"\""
param **.sink_321.app[0].localPort 1100
param **.sink_321.app[0].replyDelay 0s
param **.sink_322.numApps 1
param **.sink_322.app[0].typename "\"TcpGenericServerApp\""
param **.sink_322.app[0].localAddress "\"\""
param **.sink_322.app[0].localPort 1100
param **.sink_322.app[0].replyDelay 0s
param **.sink_323.numApps 1
param **.sink_323.app[0].typename "\"TcpGenericServerApp\""
param **.sink_323.app[0].localAddress "\"\""
param **.sink_323.app[0].localPort 1100
param **.sink_323.app[0].replyDelay 0s
param **.sink_324.numApps 1
param **.sink_324.app[0].typename "\"TcpGenericServerApp\""
param **.sink_324.app[0].localAddress "\"\""
param **.sink_324.app[0].localPort 1100
param **.sink_324.app[0].replyDelay 0s
param **.sink_325.numApps 1
param **.sink_325.app[0].typename "\"TcpGenericServerApp\""
param **.sink_325.app[0].localAddress "\"\""
param **.sink_325.app[0].localPort 1100
param **.sink_325.app[0].replyDelay 0s
param **.sink_326.numApps 1
param **.sink_326.app[0].typename "\"TcpGenericServerApp\""
param **.sink_326.app[0].localAddress "\"\""
param **.sink_326.app[0].localPort 1100
param **.sink_326.app[0].replyDelay 0s
param **.sink_327.numApps 1
param **.sink_327.app[0].typename "\"TcpGenericServerApp\""
param **.sink_327.app[0].localAddress "\"\""
param **.sink_327.app[0].localPort 1100
param **.sink_327.app[0].replyDelay 0s
param **.sink_328.numApps 1
param **.sink_328.app[0].typename "\"TcpGenericServerApp\""
param **.sink_328.app[0].localAddress "\"\""
param **.sink_328.app[0].localPort 1100
param **.sink_328.app[0].replyDelay 0s
param **.sink_329.numApps 1
param **.sink_329.app[0].typename "\"TcpGenericServerApp\""
param **.sink_329.app[0].localAddress "\"\""
param **.sink_329.app[0].localPort 1100
param **.sink_329.app[0].replyDelay 0s
param **.sink_330.numApps 1
param **.sink_330.app[0].typename "\"TcpGenericServerApp\""
param **.sink_330.app[0].localAddress "\"\""
param **.sink_330.app[0].localPort 1100
param **.sink_330.app[0].replyDelay 0s
param **.sink_331.numApps 1
param **.sink_331.app[0].typename "\"TcpGenericServerApp\""
param **.sink_331.app[0].localAddress "\"\""
param **.sink_331.app[0].localPort 1100
param **.sink_331.app[0].replyDelay 0s
param **.sink_332.numApps 1
param **.sink_332.app[0].typename "\"TcpGenericServerApp\""
param **.sink_332.app[0].localAddress "\"\""
param **.sink_332.app[0].localPort 1100
param **.sink_332.app[0].replyDelay 0s
param **.sink_333.numApps 1
param **.sink_333.app[0].typename "\"TcpGenericServerApp\""
param **.sink_333.app[0].localAddress "\"\""
param **.sink_333.app[0].localPort 1100
param **.sink_333.app[0].replyDelay 0s
param **.sink_334.numApps 1
param **.sink_334.app[0].typename "\"TcpGenericServerApp\""
param **.sink_334.app[0].localAddress "\"\""
param **.sink_334.app[0].localPort 1100
param **.sink_334.app[0].replyDelay 0s
param **.sink_335.numApps 1
param **.sink_335.app[0].typename "\"TcpGenericServerApp\""
param **.sink_335.app[0].localAddress "\"\""
param **.sink_335.app[0].localPort 1100
param **.sink_335.app[0].replyDelay 0s
param **.sink_336.numApps 1
param **.sink_336.app[0].typename "\"TcpGenericServerApp\""
param **.sink_336.app[0].localAddress "\"\""
param **.sink_336.app[0].localPort 1100
param **.sink_336.app[0].replyDelay 0s
param **.sink_337.numApps 1
param **.sink_337.app[0].typename "\"TcpGenericServerApp\""
param **.sink_337.app[0].localAddress "\"\""
param **.sink_337.app[0].localPort 1100
param **.sink_337.app[0].replyDelay 0s
param **.sink_338.numApps 1
param **.sink_338.app[0].typename "\"TcpGenericServerApp\""
param **.sink_338.app[0].localAddress "\"\""
param **.sink_338.app[0].localPort 1100
param **.sink_338.app[0].replyDelay 0s
param **.sink_339.numApps 1
param **.sink_339.app[0].typename "\"TcpGenericServerApp\""
param **.sink_339.app[0].localAddress "\"\""
param **.sink_339.app[0].localPort 1100
param **.sink_339.app[0].replyDelay 0s
param **.sink_340.numApps 1
param **.sink_340.app[0].typename "\"TcpGenericServerApp\""
param **.sink_340.app[0].localAddress "\"\""
param **.sink_340.app[0].localPort 1100
param **.sink_340.app[0].replyDelay 0s
param **.sink_341.numApps 1
param **.sink_341.app[0].typename "\"TcpGenericServerApp\""
param **.sink_341.app[0].localAddress "\"\""
param **.sink_341.app[0].localPort 1100
param **.sink_341.app[0].replyDelay 0s
param **.sink_342.numApps 1
param **.sink_342.app[0].typename "\"TcpGenericServerApp\""
param **.sink_342.app[0].localAddress "\"\""
param **.sink_342.app[0].localPort 1100
param **.sink_342.app[0].replyDelay 0s
param **.sink_343.numApps 1
param **.sink_343.app[0].typename "\"TcpGenericServerApp\""
param **.sink_343.app[0].localAddress "\"\""
param **.sink_343.app[0].localPort 1100
param **.sink_343.app[0].replyDelay 0s
param **.sink_344.numApps 1
param **.sink_344.app[0].typename "\"TcpGenericServerApp\""
param **.sink_344.app[0].localAddress "\"\""
param **.sink_344.app[0].localPort 1100
param **.sink_344.app[0].replyDelay 0s
param **.sink_345.numApps 1
param **.sink_345.app[0].typename "\"TcpGenericServerApp\""
param **.sink_345.app[0].localAddress "\"\""
param **.sink_345.app[0].localPort 1100
param **.sink_345.app[0].replyDelay 0s
param **.sink_346.numApps 1
param **.sink_346.app[0].typename "\"TcpGenericServerApp\""
param **.sink_346.app[0].localAddress "\"\""
param **.sink_346.app[0].localPort 1100
param **.sink_346.app[0].replyDelay 0s
param **.sink_347.numApps 1
param **.sink_347.app[0].typename "\"TcpGenericServerApp\""
param **.sink_347.app[0].localAddress "\"\""
param **.sink_347.app[0].localPort 1100
param **.sink_347.app[0].replyDelay 0s
param **.sink_348.numApps 1
param **.sink_348.app[0].typename "\"TcpGenericServerApp\""
param **.sink_348.app[0].localAddress "\"\""
param **.sink_348.app[0].localPort 1100
param **.sink_348.app[0].replyDelay 0s
param **.sink_349.numApps 1
param **.sink_349.app[0].typename "\"TcpGenericServerApp\""
param **.sink_349.app[0].localAddress "\"\""
param **.sink_349.app[0].localPort 1100
param **.sink_349.app[0].replyDelay 0s
param **.sink_350.numApps 1
param **.sink_350.app[0].typename "\"TcpGenericServerApp\""
param **.sink_350.app[0].localAddress "\"\""
param **.sink_350.app[0].localPort 1100
param **.sink_350.app[0].replyDelay 0s
param **.sink_351.numApps 1
param **.sink_351.app[0].typename "\"TcpGenericServerApp\""
param **.sink_351.app[0].localAddress "\"\""
param **.sink_351.app[0].localPort 1100
param **.sink_351.app[0].replyDelay 0s
param **.sink_352.numApps 1
param **.sink_352.app[0].typename "\"TcpGenericServerApp\""
param **.sink_352.app[0].localAddress "\"\""
param **.sink_352.app[0].localPort 1100
param **.sink_352.app[0].replyDelay 0s
param **.sink_353.numApps 1
param **.sink_353.app[0].typename "\"TcpGenericServerApp\""
param **.sink_353.app[0].localAddress "\"\""
param **.sink_353.app[0].localPort 1100
param **.sink_353.app[0].replyDelay 0s
param **.sink_354.numApps 1
param **.sink_354.app[0].typename "\"TcpGenericServerApp\""
param **.sink_354.app[0].localAddress "\"\""
param **.sink_354.app[0].localPort 1100
param **.sink_354.app[0].replyDelay 0s
param **.sink_355.numApps 1
param **.sink_355.app[0].typename "\"TcpGenericServerApp\""
param **.sink_355.app[0].localAddress "\"\""
param **.sink_355.app[0].localPort 1100
param **.sink_355.app[0].replyDelay 0s
param **.sink_356.numApps 1
param **.sink_356.app[0].typename "\"TcpGenericServerApp\""
param **.sink_356.app[0].localAddress "\"\""
param **.sink_356.app[0].localPort 1100
param **.sink_356.app[0].replyDelay 0s
param **.sink_357.numApps 1
param **.sink_357.app[0].typename "\"TcpGenericServerApp\""
param **.sink_357.app[0].localAddress "\"\""
param **.sink_357.app[0].localPort 1100
param **.sink_357.app[0].replyDelay 0s
param **.sink_358.numApps 1
param **.sink_358.app[0].typename "\"TcpGenericServerApp\""
param **.sink_358.app[0].localAddress "\"\""
param **.sink_358.app[0].localPort 1100
param **.sink_358.app[0].replyDelay 0s
param **.sink_359.numApps 1
param **.sink_359.app[0].typename "\"TcpGenericServerApp\""
param **.sink_359.app[0].localAddress "\"\""
param **.sink_359.app[0].localPort 1100
param **.sink_359.app[0].replyDelay 0s
param **.sink_360.numApps 1
param **.sink_360.app[0].typename "\"TcpGenericServerApp\""
param **.sink_360.app[0].localAddress "\"\""
param **.sink_360.app[0].localPort 1100
param **.sink_360.app[0].replyDelay 0s
param **.sink_361.numApps 1
param **.sink_361.app[0].typename "\"TcpGenericServerApp\""
param **.sink_361.app[0].localAddress "\"\""
param **.sink_361.app[0].localPort 1100
param **.sink_361.app[0].replyDelay 0s
param **.sink_362.numApps 1
param **.sink_362.app[0].typename "\"TcpGenericServerApp\""
param **.sink_362.app[0].localAddress "\"\""
param **.sink_362.app[0].localPort 1100
param **.sink_362.app[0].replyDelay 0s
param **.sink_363.numApps 1
param **.sink_363.app[0].typename "\"TcpGenericServerApp\""
param **.sink_363.app[0].localAddress "\"\""
param **.sink_363.app[0].localPort 1100
param **.sink_363.app[0].replyDelay 0s
param **.sink_364.numApps 1
param **.sink_364.app[0].typename "\"TcpGenericServerApp\""
param **.sink_364.app[0].localAddress "\"\""
param **.sink_364.app[0].localPort 1100
param **.sink_364.app[0].replyDelay 0s
param **.sink_365.numApps 1
param **.sink_365.app[0].typename "\"TcpGenericServerApp\""
param **.sink_365.app[0].localAddress "\"\""
param **.sink_365.app[0].localPort 1100
param **.sink_365.app[0].replyDelay 0s
param **.sink_366.numApps 1
param **.sink_366.app[0].typename "\"TcpGenericServerApp\""
param **.sink_366.app[0].localAddress "\"\""
param **.sink_366.app[0].localPort 1100
param **.sink_366.app[0].replyDelay 0s
param **.sink_367.numApps 1
param **.sink_367.app[0].typename "\"TcpGenericServerApp\""
param **.sink_367.app[0].localAddress "\"\""
param **.sink_367.app[0].localPort 1100
param **.sink_367.app[0].replyDelay 0s
param **.sink_368.numApps 1
param **.sink_368.app[0].typename "\"TcpGenericServerApp\""
param **.sink_368.app[0].localAddress "\"\""
param **.sink_368.app[0].localPort 1100
param **.sink_368.app[0].replyDelay 0s
param **.sink_369.numApps 1
param **.sink_369.app[0].typename "\"TcpGenericServerApp\""
param **.sink_369.app[0].localAddress "\"\""
param **.sink_369.app[0].localPort 1100
param **.sink_369.app[0].replyDelay 0s
param **.sink_370.numApps 1
param **.sink_370.app[0].typename "\"TcpGenericServerApp\""
param **.sink_370.app[0].localAddress "\"\""
param **.sink_370.app[0].localPort 1100
param **.sink_370.app[0].replyDelay 0s
param **.sink_371.numApps 1
param **.sink_371.app[0].typename "\"TcpGenericServerApp\""
param **.sink_371.app[0].localAddress "\"\""
param **.sink_371.app[0].localPort 1100
param **.sink_371.app[0].replyDelay 0s
param **.sink_372.numApps 1
param **.sink_372.app[0].typename "\"TcpGenericServerApp\""
param **.sink_372.app[0].localAddress "\"\""
param **.sink_372.app[0].localPort 1100
param **.sink_372.app[0].replyDelay 0s
param **.sink_373.numApps 1
param **.sink_373.app[0].typename "\"TcpGenericServerApp\""
param **.sink_373.app[0].localAddress "\"\""
param **.sink_373.app[0].localPort 1100
param **.sink_373.app[0].replyDelay 0s
param **.sink_374.numApps 1
param **.sink_374.app[0].typename "\"TcpGenericServerApp\""
[...]
1087	1979047	1.643162	0.001077
1087	1984610	1.653436	0.001526
1087	1990011	1.663261	0.001096
1087	1995588	1.67365	0.001615
1087	2000956	1.683475	0.001096
1087	2006500	1.693775	0.001568
1087	2011873	1.7036	0.001096
1087	2017250	1.713947	0.001591
1087	2022436	1.723772	0.001096
1087	2027698	1.734096	0.001568
1087	2032735	1.743921	0.001096
1087	2038046	1.754315	0.001665
1087	2043032	1.76414	0.001096
1087	2048314	1.774437	0.001568
1087	2053308	1.784262	0.001096
1087	2058635	1.794656	0.001665
1087	2063610	1.804481	0.001096
1087	2068900	1.814778	0.001568
1087	2073886	1.824603	0.001096
1087	2079330	1.834997	0.001665
1087	2084164	1.844822	0.001096
1087	2089309	1.855119	0.001568
1087	2094227	1.864944	0.001096
1087	2099453	1.875338	0.001665
1087	2104089	1.885163	0.001096
1087	2108891	1.89546	0.001568
1087	2113539	1.905285	0.001096
1087	2118145	1.915063	0.001049
1087	2122906	1.924868	0.001076
1087	2127590	1.934646	0.001049
1087	2132356	1.944498	0.001123
1087	2136918	1.954276	0.001049
1087	2141535	1.964081	0.001076
1087	2146193	1.973859	0.001049
1087	2150652	1.983637	0.001049
1087	2155056	1.993415	0.001049
1087	2159511	2.003193	0.001049
1087	2163923	2.012999	0.001077
1087	2168486	2.022824	0.001096
1087	2172786	2.032649	0.001096
1087	2177088	2.042474	0.001096
1087	2181391	2.052299	0.001096
1087	2185688	2.062124	0.001096
1087	2189990	2.071949	0.001096
1087	2194287	2.081774	0.001096
1087	2198590	2.091599	0.001096
1087	2202890	2.101424	0.001096
1087	2207189	2.111249	0.001096
1087	2211492	2.121074	0.001096
1087	2215789	2.130899	0.001096
1087	2220091	2.140724	0.001096
1087	2224390	2.150549	0.001096
1087	2228691	2.160374	0.001096
1087	2232987	2.170199	0.001096
1087	2237296	2.180024	0.001096
1087	2241593	2.189849	0.001096
1087	2245893	2.199674	0.001096
1087	2250402	2.209499	0.001096
1087	2254379	2.219324	0.001096
1087	2258411	2.229149	0.001096
1087	2262366	2.238974	0.001096
1087	2266404	2.248826	0.001123
1087	2270495	2.258651	0.001096
1087	2274365	2.268476	0.001096
1087	2278208	2.278301	0.001096
1087	2282088	2.288126	0.001096
1087	2285928	2.297951	0.001096
1087	2289801	2.307776	0.001096
1087	2293765	2.317601	0.001096
1087	2297497	2.327426	0.001096
1087	2301190	2.337251	0.001096
1087	2304922	2.347076	0.001096
1087	2308613	2.356901	0.001096
1087	2312345	2.366726	0.001096
1087	2316038	2.376551	0.001096
1087	2319786	2.386376	0.001096
1087	2323336	2.396201	0.001096
1087	2326931	2.406026	0.001096
1087	2330481	2.415851	0.001096
1087	2334082	2.425716	0.001136
1087	2337636	2.435541	0.001096
1087	2341225	2.445366	0.001096
1087	2344776	2.455191	0.001096
1087	2348365	2.465016	0.001096
1087	2351916	2.474841	0.001096
1087	2355505	2.484666	0.001096
1087	2359056	2.494491	0.001096
1087	2362645	2.504316	0.001096
1087	2366196	2.514141	0.001096
1087	2369785	2.523966	0.001096
1088	124336	0.050096	0.00196
1088	227917	0.094652	0.001861
1088	318420	0.137844	0.00281
1088	387177	0.173152	0.00261
1088	444159	0.203362	0.002888
1088	491367	0.228477	0.002535
1088	533330	0.251112	0.002255
1088	562212	0.266916	0.001049
1088	593235	0.285554	0.004259
1089	125431	0.050689	0.001049
1089	218945	0.090806	0.001049
1089	282574	0.12055	0.001049
1089	349744	0.153631	0.001786
1089	406258	0.183397	0.002137
1090	126073	0.050924	0.047582
1090	229808	0.095673	0.0437
1091	126683	0.051105	0.047814
1091	228257	0.094892	0.039303
1091	300272	0.129288	0.030317
1091	368082	0.162885	0.030183
1091	436507	0.199082	0.033018
1091	493910	0.229938	0.029793
1091	540872	0.255077	0.022991
1091	587087	0.281516	0.02539
1091	627023	0.305167	0.022602
1091	669175	0.330353	0.022828
1091	707273	0.354004	0.022602
1091	739871	0.37352	0.017089
1092	126867	0.051163	0.047872
1092	236123	0.09845	0.046231
1092	318037	0.13767	0.038171
1092	389342	0.17429	0.034775
1092	453245	0.207981	0.032642
1092	508294	0.23749	0.02846
1092	552183	0.261564	0.021874
1092	595402	0.286703	0.023262
1092	635588	0.310401	0.022649
1092	669027	0.330246	0.018796
1092	705107	0.352691	0.021396
1092	740250	0.373742	0.020002
1092	769563	0.391864	0.016978
1092	798633	0.41008	0.017167
1092	826233	0.428155	0.016086
1092	854165	0.446418	0.017106
1092	878744	0.463146	0.015655
1092	907950	0.482568	0.018373
1092	932269	0.499578	0.015961
1092	950889	0.512265	0.011638
1092	969541	0.524952	0.011638
1092	988195	0.538308	0.012307
1092	1007124	0.552201	0.012844
1093	128284	0.051973	0.001049
1093	232437	0.096722	0.001049
1094	128837	0.052219	0.001056
1094	238416	0.099499	0.001049
1094	321521	0.139515	0.001845
1094	390954	0.175339	0.001049
1094	455271	0.20903	0.001049
1094	512212	0.23969	0.0022
1094	555381	0.263441	0.001877
1094	597223	0.287752	0.001049
1094	637682	0.31145	0.001049
1094	670560	0.331295	0.001049
1094	706836	0.35374	0.001049
1094	741944	0.374886	0.001144
1094	771077	0.392913	0.001049
1094	801579	0.412069	0.001989
1094	828018	0.429312	0.001157
1094	855694	0.447491	0.001073
1094	880023	0.464195	0.001049
1094	909466	0.483617	0.001049
1094	934068	0.500627	0.001049
1094	952622	0.513314	0.001049
1094	970895	0.526001	0.001049
1094	989486	0.539357	0.001049
1094	1008455	0.55325	0.001049
1095	129014	0.052271	0.048878
1095	232964	0.09702	0.042366
1095	318751	0.13801	0.037703
1095	384779	0.171936	0.032696
1096	130274	0.052557	0.049419
1096	260110	0.109649	0.056007
1096	359654	0.158768	0.048023
1096	447643	0.205146	0.045329
1097	132565	0.053642	0.001085
1097	262323	0.110745	0.001096
1097	361643	0.159817	0.001049
1097	449942	0.206223	0.001077
1098	132804	0.053712	0.050217
1098	238786	0.099761	0.044454
1098	324160	0.140798	0.038662
1098	390070	0.174771	0.032882
1098	443770	0.203168	0.027348
1099	133481	0.053916	0.05037
1099	219827	0.091245	0.036195
1099	285902	0.122195	0.029892
1100	134172	0.054081	0.00437
1100	219711	0.091173	0.004927
1100	269818	0.114345	0.001049
1100	317989	0.137651	0.002928
1100	363370	0.160543	0.003375
1100	398317	0.179192	0.001067
1100	438746	0.200212	0.002477
1100	479286	0.221788	0.002955
1100	515153	0.241298	0.001555
1100	551587	0.261248	0.003477
1100	581950	0.278477	0.001049
1100	611514	0.296282	0.003567
1100	649070	0.31827	0.003298
1100	685524	0.340637	0.004708
1100	717537	0.360047	0.001908
1100	753027	0.381607	0.002558
1100	785317	0.401745	0.003039
1100	819061	0.423263	0.004947
1100	844252	0.440335	0.001062
1100	877786	0.46257	0.005128
1100	903758	0.479869	0.00147
1100	927561	0.496176	0.001049
1100	955885	0.515679	0.002477
1100	977727	0.531073	0.001049
1100	1006493	0.551496	0.004603
1100	1022668	0.563725	0.002443
1100	1041474	0.578787	0.00106
1100	1062004	0.594063	0.002396
1100	1079473	0.607788	0.002134
1100	1100081	0.624058	0.004625
1100	1116902	0.637592	0.002872
1100	1136151	0.652933	0.001606
1100	1149961	0.664969	0.001049
1100	1163293	0.676437	0.001049
1100	1180374	0.690934	0.002873
1100	1196090	0.704699	0.001049
1100	1209053	0.715918	0.001049
1100	1227117	0.731292	0.002254
1100	1242317	0.744228	0.001808
1100	1256038	0.756078	0.001049
1100	1270060	0.767964	0.001075
1100	1282962	0.779395	0.001095
1100	1298342	0.793517	0.001767
1100	1314008	0.807081	0.002478
1100	1325068	0.817184	0.001049
1100	1337727	0.829425	0.001049
1100	1349287	0.840623	0.001222
1100	1362618	0.853189	0.003638
1100	1373930	0.864479	0.002561
1100	1384630	0.875842	0.002634
1100	1395492	0.887175	0.002453
1100	1404834	0.897047	0.001143
1100	1416540	0.909489	0.003676
1100	1426849	0.920597	0.002379
1100	1436054	0.93064	0.001314
1100	1446669	0.941812	0.002443
1100	1456726	0.95289	0.001049
1100	1466043	0.962809	0.00119
1100	1476264	0.973887	0.002349
1100	1485556	0.984062	0.001446
1100	1495630	0.994891	0.0021
1100	1505791	1.005922	0.002302
1100	1515737	1.016869	0.002218
1100	1524938	1.026922	0.001324
1100	1534999	1.037863	0.002212
1100	1544821	1.04879	0.002198
1100	1554876	1.059862	0.002343
1100	1564522	1.070809	0.002218
1100	1573943	1.081188	0.00165
1101	134289	0.054121	0.004544
1101	238393	0.099488	0.001074
1101	327313	0.14222	0.002816
1101	396533	0.178297	0.002132
1101	451615	0.207047	0.001091
1101	501221	0.23357	0.003352
1101	537795	0.253553	0.003208
1101	571590	0.272673	0.004018
1101	599869	0.289408	0.001049
1102	135082	0.054654	0.002383
1102	240248	0.100307	0.003287
1102	320982	0.13924	0.00123
1102	388618	0.173887	0.001951
1103	135840	0.05505	0.001134
1103	222169	0.092303	0.001058
1103	288068	0.123244	0.001049
1104	135920	0.055059	0.051615
1104	241800	0.101202	0.045094
1105	136731	0.055307	0.001595
1105	243886	0.102136	0.002375
1105	326450	0.141889	0.001091
1105	392071	0.17582	0.001049
1105	449380	0.205961	0.002793
1106	137513	0.055589	0.004484
1106	237210	0.098971	0.004079
1106	307809	0.132702	0.003414
1106	374216	0.166064	0.003179
1106	438604	0.200145	0.001063
1106	498431	0.232086	0.002148
1106	542870	0.256126	0.001049
1106	588669	0.282565	0.001049
1106	630592	0.307525	0.002358
1106	670763	0.331402	0.001049
1106	711503	0.356431	0.002427
1106	743420	0.375701	0.002181
1107	138573	0.056108	0.001049
1107	246768	0.103522	0.00232
1108	139362	0.056406	0.05286
1108	244558	0.102643	0.045126
1109	140177	0.056657	0.053264
1109	250721	0.105326	0.047526
1110	142082	0.057517	0.001111
1110	249942	0.104877	0.002234
1111	142780	0.0578	0.001143
1111	253439	0.106375	0.001049
1112	142918	0.057847	0.05425
1112	247555	0.104037	0.044002
1112	327432	0.142286	0.035213
1112	395131	0.177559	0.03207
1112	446575	0.204562	0.02567
1112	492022	0.228824	0.021844
1112	526576	0.247369	0.016312
1112	557339	0.264426	0.013428
1112	582114	0.278554	0.013059
1112	607768	0.293982	0.010933
1112	633453	0.309268	0.00978
1112	651390	0.319812	0.009495
1112	670893	0.331478	0.010617
1112	693113	0.345371	0.012427
1112	713936	0.357917	0.010459
1112	733769	0.369707	0.010647
1112	755577	0.383009	0.010771
1112	778366	0.39709	0.013032
1112	795930	0.408336	0.010197
1112	819345	0.423529	0.012333
1112	840139	0.437643	0.01193
1113	143922	0.058098	0.054399
1113	233171	0.097103	0.037665
1113	303534	0.1307	0.032414
1113	362278	0.160115	0.027373
1113	417908	0.189577	0.027996
1113	467927	0.216345	0.025719
1113	519101	0.243113	0.025601
1113	564863	0.268534	0.023169
1113	605089	0.292326	0.02168
1113	641170	0.313471	0.018916
1113	673198	0.333081	0.018561
1113	707431	0.354085	0.019955
1113	735811	0.370954	0.01582
1113	765158	0.389123	0.01712
1113	792085	0.405851	0.015401
1113	824378	0.426808	0.019605
1113	849562	0.443536	0.015679
1113	872922	0.459058	0.013539
1113	896998	0.475739	0.015632
1113	920399	0.491214	0.012009
1113	940735	0.505248	0.0116
1113	958860	0.517888	0.010344
1113	976886	0.530481	0.01056
1113	995591	0.543837	0.011672
1113	1012148	0.556383	0.011022
1113	1025988	0.566743	0.008756
1113	1040114	0.577611	0.008729
1113	1054325	0.58857	0.00991
1113	1067444	0.598604	0.008985
1113	1085624	0.612557	0.011519
1113	1098885	0.623107	0.009501
1113	1114077	0.63531	0.011154
1113	1128476	0.646461	0.009381
1113	1141567	0.657607	0.010097
1113	1155133	0.669292	0.010636
1113	1167975	0.680463	0.010115
1113	1179381	0.690241	0.008729
1113	1191754	0.700876	0.008945
1113	1204558	0.712006	0.010072
1113	1216772	0.722393	0.009338
1113	1229934	0.733453	0.008982
1113	1242899	0.744734	0.010232
1113	1256450	0.756487	0.009283
1113	1270505	0.768405	0.010017
1113	1283056	0.779498	0.009867
1113	1297554	0.792932	0.010843
1113	1309032	0.802922	0.008729
1113	1322120	0.814302	0.010331
1113	1332596	0.824261	0.008729
1113	1343440	0.834498	0.008863
1113	1354563	0.845392	0.009845
1113	1365868	0.856477	0.010009
1113	1376473	0.867476	0.00995
1113	1386244	0.877655	0.00913
1113	1396868	0.888652	0.008729
1113	1406712	0.8989	0.008729
1113	1417155	0.910015	0.008729
1113	1426221	0.919887	0.008823
1113	1436283	0.930945	0.008729
1113	1446106	0.941346	0.009352
1113	1455692	0.951808	0.008729
1113	1466142	0.962903	0.008729
1113	1476631	0.974375	0.009856
1113	1485640	0.984153	0.008729
1113	1496148	0.995371	0.008918
1113	1505207	1.005357	0.008729
1113	1515256	1.016368	0.008871
1113	1526330	1.028497	0.010009
1113	1536306	1.039377	0.009831
1113	1545402	1.049477	0.009051
1113	1555270	1.060371	0.009845
1113	1564994	1.071345	0.009925
1113	1574706	1.08237	0.009976
1113	1583929	1.093317	0.009898
1113	1592734	1.103908	0.009542
1113	1601504	1.114271	0.009307
1113	1610673	1.125191	0.009871
1113	1619492	1.13557	0.00933
1113	1628651	1.146369	0.00975
1113	1637682	1.157065	0.009647
1113	1646771	1.167656	0.009542
1113	1655609	1.178243	0.009531
1113	1664450	1.189033	0.009741
1113	1672901	1.199272	0.00919
1114	146539	0.059335	0.055636
1114	251059	0.105478	0.042588
1114	330338	0.143821	0.03627
1114	397833	0.178953	0.034083
1114	454820	0.208838	0.025927
1114	500412	0.233053	0.023166
1114	537141	0.253274	0.019172
1114	567033	0.270049	0.014874
1114	593200	0.285524	0.014265
1114	617131	0.299558	0.012985
1114	644636	0.315555	0.014184
1114	666647	0.328737	0.012133
1114	690656	0.344024	0.013848
1114	718320	0.360658	0.014783
1114	743836	0.376039	0.014332
1114	764763	0.388867	0.011268
1114	787216	0.402854	0.01292
1114	810247	0.417607	0.013704
1114	834204	0.433461	0.014805
1114	853601	0.446148	0.011638
1114	872860	0.45902	0.011722
1114	891817	0.471694	0.011625
1114	912866	0.486081	0.012499
1115	146876	0.059438	0.00134
1115	235719	0.098286	0.001183
1115	307889	0.132742	0.002042
1115	365715	0.161581	0.001466
1115	420083	0.190626	0.001049
1115	470439	0.217512	0.001167
1115	523386	0.245365	0.002252
1115	568332	0.270646	0.002112
1115	608692	0.294555	0.002229
1115	642968	0.31452	0.001049
1115	674418	0.33413	0.001049
1115	709076	0.355134	0.001049
1115	737330	0.372003	0.001049
1115	767158	0.39045	0.001327
1115	794226	0.407203	0.001352
1115	825843	0.427857	0.001049
1115	852667	0.445519	0.001983
1115	874407	0.460107	0.001049
1115	902480	0.479205	0.003466
1115	923926	0.493648	0.002434
1115	944181	0.507544	0.002296
1115	961929	0.519921	0.002033
1115	978932	0.532165	0.001684
1115	997667	0.545361	0.001524
1115	1014408	0.557987	0.001604
1115	1028424	0.568882	0.002139
1115	1041270	0.57866	0.001049
1115	1055382	0.589619	0.001049
1115	1070096	0.601038	0.002434
1115	1086955	0.613606	0.001049
1115	1100229	0.624156	0.001049
1115	1116212	0.63708	0.00177
1115	1129759	0.64751	0.001049
1115	1142825	0.658656	0.001049
1115	1156438	0.670348	0.001056
1115	1169220	0.681512	0.001049
1115	1181362	0.691931	0.00169
1115	1192863	0.701934	0.001058
1115	1205612	0.713055	0.001049
1115	1219135	0.724471	0.002078
1115	1231028	0.734502	0.001049
1115	1245716	0.747204	0.00247
1115	1258571	0.758388	0.001901
1115	1271554	0.769631	0.001226
1115	1285335	0.782089	0.002591
1115	1299103	0.794193	0.001261
1115	1310233	0.803971	0.001049
1115	1323434	0.815532	0.00123
1115	1333856	0.825635	0.001374
1115	1344633	0.835547	0.001049
1115	1355726	0.846468	0.001076
1115	1366773	0.857526	0.001049
1115	1377457	0.868525	0.001049
1115	1388404	0.879923	0.002268
1115	1398299	0.890171	0.001519
1115	1408814	0.901286	0.002386
1115	1417940	0.911064	0.001049
1115	1428105	0.922216	0.002329
1115	1437092	0.931994	0.001049
1115	1447625	0.943079	0.001733
1115	1457996	0.954174	0.002366
1115	1467571	0.964519	0.001616
1115	1477571	0.975424	0.001049
1115	1487810	0.986453	0.0023
1115	1497156	0.996628	0.001257
1115	1507266	1.007497	0.00214
1115	1517483	1.018488	0.00212
1115	1527450	1.029546	0.001049
1115	1537411	1.040426	0.001049
1115	1546371	1.050526	0.001049
1115	1556308	1.06142	0.001049
1115	1566154	1.072394	0.001049
1115	1575758	1.083419	0.001049
1115	1584888	1.094366	0.001049
1115	1593726	1.104964	0.001056
1115	1602516	1.11532	0.001049
1115	1611790	1.12624	0.001049
1115	1620445	1.136619	0.001049
1115	1629800	1.147418	0.001049
1115	1638685	1.158114	0.001049
1115	1647839	1.168712	0.001056
1115	1656478	1.179292	0.001049
1115	1665498	1.190082	0.001049
1115	1673667	1.200321	0.001049
1116	148210	0.060035	0.002188
1116	254777	0.107073	0.003036
1116	333732	0.145489	0.003203
1116	397707	0.178892	0.001333
1116	451445	0.20698	0.002418
1116	496209	0.231057	0.002233
1116	533058	0.250998	0.003629
1116	559204	0.265495	0.001069
1116	589469	0.283049	0.004495
1116	617061	0.299488	0.005506
1116	635400	0.310317	0.001049
1116	653024	0.320861	0.001049
1116	673007	0.332944	0.001466
1116	696711	0.347458	0.002087
1116	715934	0.35906	0.001143
1116	737793	0.372238	0.002531
1116	757263	0.384058	0.001049
1116	779993	0.398139	0.001049
1116	800221	0.411196	0.00286
1116	822695	0.425713	0.002184
1116	842110	0.438697	0.001054
1117	149489	0.060682	0.057034
1117	254271	0.106872	0.042229
1117	336096	0.146515	0.037778
1117	403273	0.181741	0.034177
1117	452339	0.207444	0.024654
1117	497607	0.231659	0.022702
1118	155047	0.06289	0.003555
1118	255752	0.107551	0.002073
1118	332597	0.14487	0.001049
1118	405268	0.182911	0.003958
1118	456740	0.209887	0.001049
1118	502269	0.234102	0.001049
1118	541072	0.255175	0.001901
1118	569247	0.271259	0.00121
1118	595202	0.286573	0.001049
1118	620665	0.301371	0.001813
1118	646563	0.316604	0.001049
1118	668877	0.330176	0.001439
1118	694174	0.345875	0.001851
1118	720026	0.361707	0.001049
1118	746500	0.377599	0.00156
1118	766401	0.389934	0.001067
1118	788957	0.403903	0.001049
1118	812045	0.418656	0.001049
1118	835932	0.43451	0.001049
1118	855438	0.447298	0.00115
1118	874317	0.460069	0.001049
1118	894091	0.473582	0.001888
1118	914310	0.48713	0.001049
1119	158984	0.064643	0.003961
1119	258283	0.108737	0.001865
1119	338216	0.147564	0.001049
1119	405057	0.18279	0.001049
1119	455117	0.208957	0.001513
1119	499672	0.232708	0.001049
1120	159284	0.064806	0.061311
1120	283233	0.120848	0.054993
1120	394238	0.176984	0.055087
1120	473706	0.219133	0.041059
1120	539697	0.2545	0.032857
1120	590592	0.283821	0.028264
1121	162021	0.065855	0.001049
1121	285179	0.121897	0.001049
1121	396139	0.178074	0.00109
1121	478927	0.221643	0.00251
1121	542005	0.255557	0.001057
1121	592299	0.284897	0.001076
1122	165763	0.0675	0.063852
1122	265681	0.112437	0.043427
1122	343478	0.150404	0.036918
1122	409998	0.185348	0.033895
1122	463114	0.21351	0.027113
1122	515709	0.241578	0.0262
1122	562555	0.26714	0.024513
1122	602319	0.290838	0.022649
1122	638750	0.311983	0.020096
1122	677254	0.335775	0.02182
1122	709791	0.355526	0.017601
1122	742466	0.375136	0.018561
1122	771899	0.393305	0.017091
1122	805133	0.414215	0.019861
1123	168935	0.06901	0.00151
1123	267904	0.113486	0.001049
1123	345413	0.151453	0.001049
1123	412157	0.186397	0.001049
1123	466363	0.215378	0.001868
1123	518036	0.242627	0.001049
1123	564280	0.268189	0.001049
1123	604284	0.291887	0.001049
1123	642012	0.313955	0.001972
1123	680979	0.337925	0.00215
1123	711736	0.356575	0.001049
1123	744109	0.376214	0.001078
1123	773584	0.394354	0.001049
1123	806628	0.415264	0.001049
1124	178335	0.07317	0.069573
1124	294275	0.126377	0.051009
1124	399616	0.179913	0.052487
1124	479450	0.221874	0.040912
1124	547165	0.258682	0.035759
1124	599987	0.289444	0.029713
1124	647919	0.317512	0.027019
1124	688987	0.342839	0.024278
1124	723341	0.36389	0.020002
1124	751623	0.380759	0.01578
1124	787643	0.40311	0.021302
1124	815740	0.421232	0.017052
1124	840913	0.438007	0.015725
1124	866589	0.454782	0.015726
1124	893227	0.472951	0.01712
1124	914132	0.486985	0.011738
1124	936932	0.50246	0.014426
1124	957065	0.516494	0.012985
1124	974988	0.529087	0.011544
1124	992205	0.541143	0.011007
1124	1010497	0.555036	0.012844
1124	1029761	0.569672	0.013587
1124	1049155	0.584058	0.013337
1124	1062203	0.594232	0.009118
1125	183436	0.075368	0.002198
1125	296562	0.127426	0.001049
1125	401742	0.180962	0.001049
1125	481266	0.222923	0.001049
1125	549221	0.259731	0.001049
1125	601906	0.290493	0.001049
1125	649624	0.318561	0.001049
1125	690435	0.343888	0.001049
1125	725267	0.364979	0.001089
1125	753587	0.381808	0.001049
1125	789419	0.40418	0.00107
1125	817384	0.422282	0.00105
1125	842493	0.439056	0.001049
1125	868206	0.455831	0.001049
1125	896300	0.475247	0.002296
1125	915477	0.488034	0.001049
1125	938320	0.503509	0.001049
1125	958425	0.517543	0.001049
1125	976449	0.530136	0.001049
1125	993568	0.542192	0.001049
1125	1011834	0.556085	0.001049
1125	1031383	0.570721	0.001049
1125	1050571	0.585114	0.001056
1125	1063891	0.595281	0.001049
1126	204183	0.084275	0.080525
1126	329387	0.143293	0.057969
1126	420838	0.191018	0.046676
1127	206768	0.085324	0.001049
1127	331292	0.144342	0.001049
1127	422753	0.192067	0.001049

