version 2
run General-0-20220428-00:09:23-22846
attr configname General
attr datetime 20220428-00:09:23
attr experiment General
attr inifile FatTree_6__fvj_dc_big_traffic_seed4.ini
attr iterationvars ""
attr iterationvarsf ""
attr measurement ""
attr network FatTree_6__fvj_dc_big_traffic_seed4
attr processid 22846
attr repetition 0
attr replication #0
attr resultdir results
attr runnumber 0
attr seedset 0
param **.ppp[*].ppp.queue.typename "\"DropTailQueue\""
param **.ppp[*].ppp.queue.packetCapacity 100
param *.configurator.config "xmldoc(\"FatTree_6__fvj_dc_big_traffic_seed4.xml\")"
param **.sink_000.numApps 1
param **.sink_000.app[0].typename "\"TcpGenericServerApp\""
param **.sink_000.app[0].localAddress "\"\""
param **.sink_000.app[0].localPort 1100
param **.sink_000.app[0].replyDelay 0s
param **.sink_001.numApps 1
param **.sink_001.app[0].typename "\"TcpGenericServerApp\""
param **.sink_001.app[0].localAddress "\"\""
param **.sink_001.app[0].localPort 1100
param **.sink_001.app[0].replyDelay 0s
param **.sink_002.numApps 1
param **.sink_002.app[0].typename "\"TcpGenericServerApp\""
param **.sink_002.app[0].localAddress "\"\""
param **.sink_002.app[0].localPort 1100
param **.sink_002.app[0].replyDelay 0s
param **.sink_003.numApps 1
param **.sink_003.app[0].typename "\"TcpGenericServerApp\""
param **.sink_003.app[0].localAddress "\"\""
param **.sink_003.app[0].localPort 1100
param **.sink_003.app[0].replyDelay 0s
param **.sink_004.numApps 1
param **.sink_004.app[0].typename "\"TcpGenericServerApp\""
param **.sink_004.app[0].localAddress "\"\""
param **.sink_004.app[0].localPort 1100
param **.sink_004.app[0].replyDelay 0s
param **.sink_005.numApps 1
param **.sink_005.app[0].typename "\"TcpGenericServerApp\""
param **.sink_005.app[0].localAddress "\"\""
param **.sink_005.app[0].localPort 1100
param **.sink_005.app[0].replyDelay 0s
param **.sink_006.numApps 1
param **.sink_006.app[0].typename "\"TcpGenericServerApp\""
param **.sink_006.app[0].localAddress "\"\""
param **.sink_006.app[0].localPort 1100
param **.sink_006.app[0].replyDelay 0s
param **.sink_007.numApps 1
param **.sink_007.app[0].typename "\"TcpGenericServerApp\""
param **.sink_007.app[0].localAddress "\"\""
param **.sink_007.app[0].localPort 1100
param **.sink_007.app[0].replyDelay 0s
param **.sink_008.numApps 1
param **.sink_008.app[0].typename "\"TcpGenericServerApp\""
param **.sink_008.app[0].localAddress "\"\""
param **.sink_008.app[0].localPort 1100
param **.sink_008.app[0].replyDelay 0s
param **.sink_009.numApps 1
param **.sink_009.app[0].typename "\"TcpGenericServerApp\""
param **.sink_009.app[0].localAddress "\"\""
param **.sink_009.app[0].localPort 1100
param **.sink_009.app[0].replyDelay 0s
param **.sink_010.numApps 1
param **.sink_010.app[0].typename "\"TcpGenericServerApp\""
param **.sink_010.app[0].localAddress "\"\""
param **.sink_010.app[0].localPort 1100
param **.sink_010.app[0].replyDelay 0s
param **.sink_011.numApps 1
param **.sink_011.app[0].typename "\"TcpGenericServerApp\""
param **.sink_011.app[0].localAddress "\"\""
param **.sink_011.app[0].localPort 1100
param **.sink_011.app[0].replyDelay 0s
param **.sink_012.numApps 1
param **.sink_012.app[0].typename "\"TcpGenericServerApp\""
param **.sink_012.app[0].localAddress "\"\""
param **.sink_012.app[0].localPort 1100
param **.sink_012.app[0].replyDelay 0s
param **.sink_013.numApps 1
param **.sink_013.app[0].typename "\"TcpGenericServerApp\""
param **.sink_013.app[0].localAddress "\"\""
param **.sink_013.app[0].localPort 1100
param **.sink_013.app[0].replyDelay 0s
param **.sink_014.numApps 1
param **.sink_014.app[0].typename "\"TcpGenericServerApp\""
param **.sink_014.app[0].localAddress "\"\""
param **.sink_014.app[0].localPort 1100
param **.sink_014.app[0].replyDelay 0s
param **.sink_015.numApps 1
param **.sink_015.app[0].typename "\"TcpGenericServerApp\""
param **.sink_015.app[0].localAddress "\"\""
param **.sink_015.app[0].localPort 1100
param **.sink_015.app[0].replyDelay 0s
param **.sink_016.numApps 1
param **.sink_016.app[0].typename "\"TcpGenericServerApp\""
param **.sink_016.app[0].localAddress "\"\""
param **.sink_016.app[0].localPort 1100
param **.sink_016.app[0].replyDelay 0s
param **.sink_017.numApps 1
param **.sink_017.app[0].typename "\"TcpGenericServerApp\""
param **.sink_017.app[0].localAddress "\"\""
param **.sink_017.app[0].localPort 1100
param **.sink_017.app[0].replyDelay 0s
param **.sink_018.numApps 1
param **.sink_018.app[0].typename "\"TcpGenericServerApp\""
param **.sink_018.app[0].localAddress "\"\""
param **.sink_018.app[0].localPort 1100
param **.sink_018.app[0].replyDelay 0s
param **.sink_019.numApps 1
param **.sink_019.app[0].typename "\"TcpGenericServerApp\""
param **.sink_019.app[0].localAddress "\"\""
param **.sink_019.app[0].localPort 1100
param **.sink_019.app[0].replyDelay 0s
param **.sink_020.numApps 1
param **.sink_020.app[0].typename "\"TcpGenericServerApp\""
param **.sink_020.app[0].localAddress "\"\""
param **.sink_020.app[0].localPort 1100
param **.sink_020.app[0].replyDelay 0s
param **.sink_021.numApps 1
param **.sink_021.app[0].typename "\"TcpGenericServerApp\""
param **.sink_021.app[0].localAddress "\"\""
param **.sink_021.app[0].localPort 1100
param **.sink_021.app[0].replyDelay 0s
param **.sink_022.numApps 1
param **.sink_022.app[0].typename "\"TcpGenericServerApp\""
param **.sink_022.app[0].localAddress "\"\""
param **.sink_022.app[0].localPort 1100
param **.sink_022.app[0].replyDelay 0s
param **.sink_023.numApps 1
param **.sink_023.app[0].typename "\"TcpGenericServerApp\""
param **.sink_023.app[0].localAddress "\"\""
param **.sink_023.app[0].localPort 1100
param **.sink_023.app[0].replyDelay 0s
param **.sink_024.numApps 1
param **.sink_024.app[0].typename "\"TcpGenericServerApp\""
param **.sink_024.app[0].localAddress "\"\""
param **.sink_024.app[0].localPort 1100
param **.sink_024.app[0].replyDelay 0s
param **.sink_025.numApps 1
param **.sink_025.app[0].typename "\"TcpGenericServerApp\""
param **.sink_025.app[0].localAddress "\"\""
param **.sink_025.app[0].localPort 1100
param **.sink_025.app[0].replyDelay 0s
param **.sink_026.numApps 1
param **.sink_026.app[0].typename "\"TcpGenericServerApp\""
param **.sink_026.app[0].localAddress "\"\""
param **.sink_026.app[0].localPort 1100
param **.sink_026.app[0].replyDelay 0s
param **.sink_027.numApps 1
param **.sink_027.app[0].typename "\"TcpGenericServerApp\""
param **.sink_027.app[0].localAddress "\"\""
param **.sink_027.app[0].localPort 1100
param **.sink_027.app[0].replyDelay 0s
param **.sink_028.numApps 1
param **.sink_028.app[0].typename "\"TcpGenericServerApp\""
param **.sink_028.app[0].localAddress "\"\""
param **.sink_028.app[0].localPort 1100
param **.sink_028.app[0].replyDelay 0s
param **.sink_029.numApps 1
param **.sink_029.app[0].typename "\"TcpGenericServerApp\""
param **.sink_029.app[0].localAddress "\"\""
param **.sink_029.app[0].localPort 1100
param **.sink_029.app[0].replyDelay 0s
param **.sink_030.numApps 1
param **.sink_030.app[0].typename "\"TcpGenericServerApp\""
param **.sink_030.app[0].localAddress "\"\""
param **.sink_030.app[0].localPort 1100
param **.sink_030.app[0].replyDelay 0s
param **.sink_031.numApps 1
param **.sink_031.app[0].typename "\"TcpGenericServerApp\""
param **.sink_031.app[0].localAddress "\"\""
param **.sink_031.app[0].localPort 1100
param **.sink_031.app[0].replyDelay 0s
param **.sink_032.numApps 1
param **.sink_032.app[0].typename "\"TcpGenericServerApp\""
param **.sink_032.app[0].localAddress "\"\""
param **.sink_032.app[0].localPort 1100
param **.sink_032.app[0].replyDelay 0s
param **.sink_033.numApps 1
param **.sink_033.app[0].typename "\"TcpGenericServerApp\""
param **.sink_033.app[0].localAddress "\"\""
param **.sink_033.app[0].localPort 1100
param **.sink_033.app[0].replyDelay 0s
param **.sink_034.numApps 1
param **.sink_034.app[0].typename "\"TcpGenericServerApp\""
param **.sink_034.app[0].localAddress "\"\""
param **.sink_034.app[0].localPort 1100
param **.sink_034.app[0].replyDelay 0s
param **.sink_035.numApps 1
param **.sink_035.app[0].typename "\"TcpGenericServerApp\""
param **.sink_035.app[0].localAddress "\"\""
param **.sink_035.app[0].localPort 1100
param **.sink_035.app[0].replyDelay 0s
param **.sink_036.numApps 1
param **.sink_036.app[0].typename "\"TcpGenericServerApp\""
param **.sink_036.app[0].localAddress "\"\""
param **.sink_036.app[0].localPort 1100
param **.sink_036.app[0].replyDelay 0s
param **.sink_037.numApps 1
param **.sink_037.app[0].typename "\"TcpGenericServerApp\""
param **.sink_037.app[0].localAddress "\"\""
param **.sink_037.app[0].localPort 1100
param **.sink_037.app[0].replyDelay 0s
param **.sink_038.numApps 1
param **.sink_038.app[0].typename "\"TcpGenericServerApp\""
param **.sink_038.app[0].localAddress "\"\""
param **.sink_038.app[0].localPort 1100
param **.sink_038.app[0].replyDelay 0s
param **.sink_039.numApps 1
param **.sink_039.app[0].typename "\"TcpGenericServerApp\""
param **.sink_039.app[0].localAddress "\"\""
param **.sink_039.app[0].localPort 1100
param **.sink_039.app[0].replyDelay 0s
param **.sink_040.numApps 1
param **.sink_040.app[0].typename "\"TcpGenericServerApp\""
param **.sink_040.app[0].localAddress "\"\""
param **.sink_040.app[0].localPort 1100
param **.sink_040.app[0].replyDelay 0s
param **.sink_041.numApps 1
param **.sink_041.app[0].typename "\"TcpGenericServerApp\""
param **.sink_041.app[0].localAddress "\"\""
param **.sink_041.app[0].localPort 1100
param **.sink_041.app[0].replyDelay 0s
param **.sink_042.numApps 1
param **.sink_042.app[0].typename "\"TcpGenericServerApp\""
param **.sink_042.app[0].localAddress "\"\""
param **.sink_042.app[0].localPort 1100
param **.sink_042.app[0].replyDelay 0s
param **.sink_043.numApps 1
param **.sink_043.app[0].typename "\"TcpGenericServerApp\""
param **.sink_043.app[0].localAddress "\"\""
param **.sink_043.app[0].localPort 1100
param **.sink_043.app[0].replyDelay 0s
param **.sink_044.numApps 1
param **.sink_044.app[0].typename "\"TcpGenericServerApp\""
param **.sink_044.app[0].localAddress "\"\""
param **.sink_044.app[0].localPort 1100
param **.sink_044.app[0].replyDelay 0s
param **.sink_045.numApps 1
param **.sink_045.app[0].typename "\"TcpGenericServerApp\""
param **.sink_045.app[0].localAddress "\"\""
param **.sink_045.app[0].localPort 1100
param **.sink_045.app[0].replyDelay 0s
param **.sink_046.numApps 1
param **.sink_046.app[0].typename "\"TcpGenericServerApp\""
param **.sink_046.app[0].localAddress "\"\""
param **.sink_046.app[0].localPort 1100
param **.sink_046.app[0].replyDelay 0s
param **.sink_047.numApps 1
param **.sink_047.app[0].typename "\"TcpGenericServerApp\""
param **.sink_047.app[0].localAddress "\"\""
param **.sink_047.app[0].localPort 1100
param **.sink_047.app[0].replyDelay 0s
param **.sink_048.numApps 1
param **.sink_048.app[0].typename "\"TcpGenericServerApp\""
param **.sink_048.app[0].localAddress "\"\""
param **.sink_048.app[0].localPort 1100
param **.sink_048.app[0].replyDelay 0s
param **.sink_049.numApps 1
param **.sink_049.app[0].typename "\"TcpGenericServerApp\""
param **.sink_049.app[0].localAddress "\"\""
param **.sink_049.app[0].localPort 1100
param **.sink_049.app[0].replyDelay 0s
param **.sink_050.numApps 1
param **.sink_050.app[0].typename "\"TcpGenericServerApp\""
param **.sink_050.app[0].localAddress "\"\""
param **.sink_050.app[0].localPort 1100
param **.sink_050.app[0].replyDelay 0s
param **.sink_051.numApps 1
param **.sink_051.app[0].typename "\"TcpGenericServerApp\""
param **.sink_051.app[0].localAddress "\"\""
param **.sink_051.app[0].localPort 1100
param **.sink_051.app[0].replyDelay 0s
param **.sink_052.numApps 1
param **.sink_052.app[0].typename "\"TcpGenericServerApp\""
param **.sink_052.app[0].localAddress "\"\""
param **.sink_052.app[0].localPort 1100
param **.sink_052.app[0].replyDelay 0s
param **.sink_053.numApps 1
param **.sink_053.app[0].typename "\"TcpGenericServerApp\""
param **.sink_053.app[0].localAddress "\"\""
param **.sink_053.app[0].localPort 1100
param **.sink_053.app[0].replyDelay 0s
param **.sink_054.numApps 1
param **.sink_054.app[0].typename "\"TcpGenericServerApp\""
param **.sink_054.app[0].localAddress "\"\""
param **.sink_054.app[0].localPort 1100
param **.sink_054.app[0].replyDelay 0s
param **.sink_055.numApps 1
param **.sink_055.app[0].typename "\"TcpGenericServerApp\""
param **.sink_055.app[0].localAddress "\"\""
param **.sink_055.app[0].localPort 1100
param **.sink_055.app[0].replyDelay 0s
param **.sink_056.numApps 1
param **.sink_056.app[0].typename "\"TcpGenericServerApp\""
param **.sink_056.app[0].localAddress "\"\""
param **.sink_056.app[0].localPort 1100
param **.sink_056.app[0].replyDelay 0s
param **.sink_057.numApps 1
param **.sink_057.app[0].typename "\"TcpGenericServerApp\""
param **.sink_057.app[0].localAddress "\"\""
param **.sink_057.app[0].localPort 1100
param **.sink_057.app[0].replyDelay 0s
param **.sink_058.numApps 1
param **.sink_058.app[0].typename "\"TcpGenericServerApp\""
param **.sink_058.app[0].localAddress "\"\""
param **.sink_058.app[0].localPort 1100
param **.sink_058.app[0].replyDelay 0s
param **.sink_059.numApps 1
param **.sink_059.app[0].typename "\"TcpGenericServerApp\""
param **.sink_059.app[0].localAddress "\"\""
param **.sink_059.app[0].localPort 1100
param **.sink_059.app[0].replyDelay 0s
param **.sink_060.numApps 1
param **.sink_060.app[0].typename "\"TcpGenericServerApp\""
param **.sink_060.app[0].localAddress "\"\""
param **.sink_060.app[0].localPort 1100
param **.sink_060.app[0].replyDelay 0s
param **.sink_061.numApps 1
param **.sink_061.app[0].typename "\"TcpGenericServerApp\""
param **.sink_061.app[0].localAddress "\"\""
param **.sink_061.app[0].localPort 1100
param **.sink_061.app[0].replyDelay 0s
param **.sink_062.numApps 1
param **.sink_062.app[0].typename "\"TcpGenericServerApp\""
param **.sink_062.app[0].localAddress "\"\""
param **.sink_062.app[0].localPort 1100
param **.sink_062.app[0].replyDelay 0s
param **.sink_063.numApps 1
param **.sink_063.app[0].typename "\"TcpGenericServerApp\""
param **.sink_063.app[0].localAddress "\"\""
param **.sink_063.app[0].localPort 1100
param **.sink_063.app[0].replyDelay 0s
param **.sink_064.numApps 1
param **.sink_064.app[0].typename "\"TcpGenericServerApp\""
param **.sink_064.app[0].localAddress "\"\""
param **.sink_064.app[0].localPort 1100
param **.sink_064.app[0].replyDelay 0s
param **.sink_065.numApps 1
param **.sink_065.app[0].typename "\"TcpGenericServerApp\""
param **.sink_065.app[0].localAddress "\"\""
param **.sink_065.app[0].localPort 1100
param **.sink_065.app[0].replyDelay 0s
param **.sink_066.numApps 1
param **.sink_066.app[0].typename "\"TcpGenericServerApp\""
param **.sink_066.app[0].localAddress "\"\""
param **.sink_066.app[0].localPort 1100
param **.sink_066.app[0].replyDelay 0s
param **.sink_067.numApps 1
param **.sink_067.app[0].typename "\"TcpGenericServerApp\""
param **.sink_067.app[0].localAddress "\"\""
param **.sink_067.app[0].localPort 1100
param **.sink_067.app[0].replyDelay 0s
param **.sink_068.numApps 1
param **.sink_068.app[0].typename "\"TcpGenericServerApp\""
param **.sink_068.app[0].localAddress "\"\""
param **.sink_068.app[0].localPort 1100
param **.sink_068.app[0].replyDelay 0s
param **.sink_069.numApps 1
param **.sink_069.app[0].typename "\"TcpGenericServerApp\""
param **.sink_069.app[0].localAddress "\"\""
param **.sink_069.app[0].localPort 1100
param **.sink_069.app[0].replyDelay 0s
param **.sink_070.numApps 1
param **.sink_070.app[0].typename "\"TcpGenericServerApp\""
param **.sink_070.app[0].localAddress "\"\""
param **.sink_070.app[0].localPort 1100
param **.sink_070.app[0].replyDelay 0s
param **.sink_071.numApps 1
param **.sink_071.app[0].typename "\"TcpGenericServerApp\""
param **.sink_071.app[0].localAddress "\"\""
param **.sink_071.app[0].localPort 1100
param **.sink_071.app[0].replyDelay 0s
param **.sink_072.numApps 1
param **.sink_072.app[0].typename "\"TcpGenericServerApp\""
param **.sink_072.app[0].localAddress "\"\""
param **.sink_072.app[0].localPort 1100
param **.sink_072.app[0].replyDelay 0s
param **.sink_073.numApps 1
param **.sink_073.app[0].typename "\"TcpGenericServerApp\""
param **.sink_073.app[0].localAddress "\"\""
param **.sink_073.app[0].localPort 1100
param **.sink_073.app[0].replyDelay 0s
param **.sink_074.numApps 1
param **.sink_074.app[0].typename "\"TcpGenericServerApp\""
param **.sink_074.app[0].localAddress "\"\""
param **.sink_074.app[0].localPort 1100
param **.sink_074.app[0].replyDelay 0s
param **.sink_075.numApps 1
param **.sink_075.app[0].typename "\"TcpGenericServerApp\""
param **.sink_075.app[0].localAddress "\"\""
param **.sink_075.app[0].localPort 1100
param **.sink_075.app[0].replyDelay 0s
param **.sink_076.numApps 1
param **.sink_076.app[0].typename "\"TcpGenericServerApp\""
param **.sink_076.app[0].localAddress "\"\""
param **.sink_076.app[0].localPort 1100
param **.sink_076.app[0].replyDelay 0s
param **.sink_077.numApps 1
param **.sink_077.app[0].typename "\"TcpGenericServerApp\""
param **.sink_077.app[0].localAddress "\"\""
param **.sink_077.app[0].localPort 1100
param **.sink_077.app[0].replyDelay 0s
param **.sink_078.numApps 1
param **.sink_078.app[0].typename "\"TcpGenericServerApp\""
param **.sink_078.app[0].localAddress "\"\""
param **.sink_078.app[0].localPort 1100
param **.sink_078.app[0].replyDelay 0s
param **.sink_079.numApps 1
param **.sink_079.app[0].typename "\"TcpGenericServerApp\""
param **.sink_079.app[0].localAddress "\"\""
param **.sink_079.app[0].localPort 1100
param **.sink_079.app[0].replyDelay 0s
param **.sink_080.numApps 1
param **.sink_080.app[0].typename "\"TcpGenericServerApp\""
param **.sink_080.app[0].localAddress "\"\""
param **.sink_080.app[0].localPort 1100
param **.sink_080.app[0].replyDelay 0s
param **.sink_081.numApps 1
param **.sink_081.app[0].typename "\"TcpGenericServerApp\""
param **.sink_081.app[0].localAddress "\"\""
param **.sink_081.app[0].localPort 1100
param **.sink_081.app[0].replyDelay 0s
param **.sink_082.numApps 1
param **.sink_082.app[0].typename "\"TcpGenericServerApp\""
param **.sink_082.app[0].localAddress "\"\""
param **.sink_082.app[0].localPort 1100
param **.sink_082.app[0].replyDelay 0s
param **.sink_083.numApps 1
param **.sink_083.app[0].typename "\"TcpGenericServerApp\""
param **.sink_083.app[0].localAddress "\"\""
param **.sink_083.app[0].localPort 1100
param **.sink_083.app[0].replyDelay 0s
param **.sink_084.numApps 1
param **.sink_084.app[0].typename "\"TcpGenericServerApp\""
param **.sink_084.app[0].localAddress "\"\""
param **.sink_084.app[0].localPort 1100
param **.sink_084.app[0].replyDelay 0s
param **.sink_085.numApps 1
param **.sink_085.app[0].typename "\"TcpGenericServerApp\""
param **.sink_085.app[0].localAddress "\"\""
param **.sink_085.app[0].localPort 1100
param **.sink_085.app[0].replyDelay 0s
param **.sink_086.numApps 1
param **.sink_086.app[0].typename "\"TcpGenericServerApp\""
param **.sink_086.app[0].localAddress "\"\""
param **.sink_086.app[0].localPort 1100
param **.sink_086.app[0].replyDelay 0s
param **.sink_087.numApps 1
param **.sink_087.app[0].typename "\"TcpGenericServerApp\""
param **.sink_087.app[0].localAddress "\"\""
param **.sink_087.app[0].localPort 1100
param **.sink_087.app[0].replyDelay 0s
param **.sink_088.numApps 1
param **.sink_088.app[0].typename "\"TcpGenericServerApp\""
param **.sink_088.app[0].localAddress "\"\""
param **.sink_088.app[0].localPort 1100
param **.sink_088.app[0].replyDelay 0s
param **.sink_089.numApps 1
param **.sink_089.app[0].typename "\"TcpGenericServerApp\""
param **.sink_089.app[0].localAddress "\"\""
param **.sink_089.app[0].localPort 1100
param **.sink_089.app[0].replyDelay 0s
param **.sink_090.numApps 1
param **.sink_090.app[0].typename "\"TcpGenericServerApp\""
param **.sink_090.app[0].localAddress "\"\""
param **.sink_090.app[0].localPort 1100
param **.sink_090.app[0].replyDelay 0s
param **.sink_091.numApps 1
param **.sink_091.app[0].typename "\"TcpGenericServerApp\""
param **.sink_091.app[0].localAddress "\"\""
param **.sink_091.app[0].localPort 1100
param **.sink_091.app[0].replyDelay 0s
param **.sink_092.numApps 1
param **.sink_092.app[0].typename "\"TcpGenericServerApp\""
param **.sink_092.app[0].localAddress "\"\""
param **.sink_092.app[0].localPort 1100
param **.sink_092.app[0].replyDelay 0s
param **.sink_093.numApps 1
param **.sink_093.app[0].typename "\"TcpGenericServerApp\""
param **.sink_093.app[0].localAddress "\"\""
param **.sink_093.app[0].localPort 1100
param **.sink_093.app[0].replyDelay 0s
param **.sink_094.numApps 1
param **.sink_094.app[0].typename "\"TcpGenericServerApp\""
param **.sink_094.app[0].localAddress "\"\""
param **.sink_094.app[0].localPort 1100
param **.sink_094.app[0].replyDelay 0s
param **.sink_095.numApps 1
param **.sink_095.app[0].typename "\"TcpGenericServerApp\""
param **.sink_095.app[0].localAddress "\"\""
param **.sink_095.app[0].localPort 1100
param **.sink_095.app[0].replyDelay 0s
param **.sink_096.numApps 1
param **.sink_096.app[0].typename "\"TcpGenericServerApp\""
param **.sink_096.app[0].localAddress "\"\""
param **.sink_096.app[0].localPort 1100
param **.sink_096.app[0].replyDelay 0s
param **.sink_097.numApps 1
param **.sink_097.app[0].typename "\"TcpGenericServerApp\""
param **.sink_097.app[0].localAddress "\"\""
param **.sink_097.app[0].localPort 1100
param **.sink_097.app[0].replyDelay 0s
param **.sink_098.numApps 1
param **.sink_098.app[0].typename "\"TcpGenericServerApp\""
param **.sink_098.app[0].localAddress "\"\""
param **.sink_098.app[0].localPort 1100
param **.sink_098.app[0].replyDelay 0s
param **.sink_099.numApps 1
param **.sink_099.app[0].typename "\"TcpGenericServerApp\""
param **.sink_099.app[0].localAddress "\"\""
param **.sink_099.app[0].localPort 1100
param **.sink_099.app[0].replyDelay 0s
param **.sink_100.numApps 1
param **.sink_100.app[0].typename "\"TcpGenericServerApp\""
param **.sink_100.app[0].localAddress "\"\""
param **.sink_100.app[0].localPort 1100
param **.sink_100.app[0].replyDelay 0s
param **.sink_101.numApps 1
param **.sink_101.app[0].typename "\"TcpGenericServerApp\""
param **.sink_101.app[0].localAddress "\"\""
param **.sink_101.app[0].localPort 1100
param **.sink_101.app[0].replyDelay 0s
param **.sink_102.numApps 1
param **.sink_102.app[0].typename "\"TcpGenericServerApp\""
param **.sink_102.app[0].localAddress "\"\""
param **.sink_102.app[0].localPort 1100
param **.sink_102.app[0].replyDelay 0s
param **.sink_103.numApps 1
param **.sink_103.app[0].typename "\"TcpGenericServerApp\""
param **.sink_103.app[0].localAddress "\"\""
param **.sink_103.app[0].localPort 1100
param **.sink_103.app[0].replyDelay 0s
param **.sink_104.numApps 1
param **.sink_104.app[0].typename "\"TcpGenericServerApp\""
param **.sink_104.app[0].localAddress "\"\""
param **.sink_104.app[0].localPort 1100
param **.sink_104.app[0].replyDelay 0s
param **.sink_105.numApps 1
param **.sink_105.app[0].typename "\"TcpGenericServerApp\""
param **.sink_105.app[0].localAddress "\"\""
param **.sink_105.app[0].localPort 1100
param **.sink_105.app[0].replyDelay 0s
param **.sink_106.numApps 1
param **.sink_106.app[0].typename "\"TcpGenericServerApp\""
param **.sink_106.app[0].localAddress "\"\""
param **.sink_106.app[0].localPort 1100
param **.sink_106.app[0].replyDelay 0s
param **.sink_107.numApps 1
param **.sink_107.app[0].typename "\"TcpGenericServerApp\""
param **.sink_107.app[0].localAddress "\"\""
param **.sink_107.app[0].localPort 1100
param **.sink_107.app[0].replyDelay 0s
param **.sink_108.numApps 1
param **.sink_108.app[0].typename "\"TcpGenericServerApp\""
param **.sink_108.app[0].localAddress "\"\""
param **.sink_108.app[0].localPort 1100
param **.sink_108.app[0].replyDelay 0s
param **.sink_109.numApps 1
param **.sink_109.app[0].typename "\"TcpGenericServerApp\""
param **.sink_109.app[0].localAddress "\"\""
param **.sink_109.app[0].localPort 1100
param **.sink_109.app[0].replyDelay 0s
param **.sink_110.numApps 1
param **.sink_110.app[0].typename "\"TcpGenericServerApp\""
param **.sink_110.app[0].localAddress "\"\""
param **.sink_110.app[0].localPort 1100
param **.sink_110.app[0].replyDelay 0s
param **.sink_111.numApps 1
param **.sink_111.app[0].typename "\"TcpGenericServerApp\""
param **.sink_111.app[0].localAddress "\"\""
param **.sink_111.app[0].localPort 1100
param **.sink_111.app[0].replyDelay 0s
param **.sink_112.numApps 1
param **.sink_112.app[0].typename "\"TcpGenericServerApp\""
param **.sink_112.app[0].localAddress "\"\""
param **.sink_112.app[0].localPort 1100
param **.sink_112.app[0].replyDelay 0s
param **.sink_113.numApps 1
param **.sink_113.app[0].typename "\"TcpGenericServerApp\""
param **.sink_113.app[0].localAddress "\"\""
param **.sink_113.app[0].localPort 1100
param **.sink_113.app[0].replyDelay 0s
param **.sink_114.numApps 1
param **.sink_114.app[0].typename "\"TcpGenericServerApp\""
param **.sink_114.app[0].localAddress "\"\""
param **.sink_114.app[0].localPort 1100
param **.sink_114.app[0].replyDelay 0s
param **.sink_115.numApps 1
param **.sink_115.app[0].typename "\"TcpGenericServerApp\""
param **.sink_115.app[0].localAddress "\"\""
param **.sink_115.app[0].localPort 1100
param **.sink_115.app[0].replyDelay 0s
param **.sink_116.numApps 1
param **.sink_116.app[0].typename "\"TcpGenericServerApp\""
param **.sink_116.app[0].localAddress "\"\""
param **.sink_116.app[0].localPort 1100
param **.sink_116.app[0].replyDelay 0s
param **.sink_117.numApps 1
param **.sink_117.app[0].typename "\"TcpGenericServerApp\""
param **.sink_117.app[0].localAddress "\"\""
param **.sink_117.app[0].localPort 1100
param **.sink_117.app[0].replyDelay 0s
param **.sink_118.numApps 1
param **.sink_118.app[0].typename "\"TcpGenericServerApp\""
param **.sink_118.app[0].localAddress "\"\""
param **.sink_118.app[0].localPort 1100
param **.sink_118.app[0].replyDelay 0s
param **.sink_119.numApps 1
param **.sink_119.app[0].typename "\"TcpGenericServerApp\""
param **.sink_119.app[0].localAddress "\"\""
param **.sink_119.app[0].localPort 1100
param **.sink_119.app[0].replyDelay 0s
param **.sink_120.numApps 1
param **.sink_120.app[0].typename "\"TcpGenericServerApp\""
param **.sink_120.app[0].localAddress "\"\""
param **.sink_120.app[0].localPort 1100
param **.sink_120.app[0].replyDelay 0s
param **.sink_121.numApps 1
param **.sink_121.app[0].typename "\"TcpGenericServerApp\""
param **.sink_121.app[0].localAddress "\"\""
param **.sink_121.app[0].localPort 1100
param **.sink_121.app[0].replyDelay 0s
param **.sink_122.numApps 1
param **.sink_122.app[0].typename "\"TcpGenericServerApp\""
param **.sink_122.app[0].localAddress "\"\""
param **.sink_122.app[0].localPort 1100
param **.sink_122.app[0].replyDelay 0s
param **.sink_123.numApps 1
param **.sink_123.app[0].typename "\"TcpGenericServerApp\""
param **.sink_123.app[0].localAddress "\"\""
param **.sink_123.app[0].localPort 1100
param **.sink_123.app[0].replyDelay 0s
param **.sink_124.numApps 1
param **.sink_124.app[0].typename "\"TcpGenericServerApp\""
param **.sink_124.app[0].localAddress "\"\""
param **.sink_124.app[0].localPort 1100
param **.sink_124.app[0].replyDelay 0s
param **.sink_125.numApps 1
param **.sink_125.app[0].typename "\"TcpGenericServerApp\""
param **.sink_125.app[0].localAddress "\"\""
param **.sink_125.app[0].localPort 1100
param **.sink_125.app[0].replyDelay 0s
param **.sink_126.numApps 1
param **.sink_126.app[0].typename "\"TcpGenericServerApp\""
param **.sink_126.app[0].localAddress "\"\""
param **.sink_126.app[0].localPort 1100
param **.sink_126.app[0].replyDelay 0s
param **.sink_127.numApps 1
param **.sink_127.app[0].typename "\"TcpGenericServerApp\""
param **.sink_127.app[0].localAddress "\"\""
param **.sink_127.app[0].localPort 1100
param **.sink_127.app[0].replyDelay 0s
param **.sink_128.numApps 1
param **.sink_128.app[0].typename "\"TcpGenericServerApp\""
param **.sink_128.app[0].localAddress "\"\""
param **.sink_128.app[0].localPort 1100
param **.sink_128.app[0].replyDelay 0s
param **.sink_129.numApps 1
param **.sink_129.app[0].typename "\"TcpGenericServerApp\""
param **.sink_129.app[0].localAddress "\"\""
param **.sink_129.app[0].localPort 1100
param **.sink_129.app[0].replyDelay 0s
param **.sink_130.numApps 1
param **.sink_130.app[0].typename "\"TcpGenericServerApp\""
param **.sink_130.app[0].localAddress "\"\""
param **.sink_130.app[0].localPort 1100
param **.sink_130.app[0].replyDelay 0s
param **.sink_131.numApps 1
param **.sink_131.app[0].typename "\"TcpGenericServerApp\""
param **.sink_131.app[0].localAddress "\"\""
param **.sink_131.app[0].localPort 1100
param **.sink_131.app[0].replyDelay 0s
param **.sink_132.numApps 1
param **.sink_132.app[0].typename "\"TcpGenericServerApp\""
param **.sink_132.app[0].localAddress "\"\""
param **.sink_132.app[0].localPort 1100
param **.sink_132.app[0].replyDelay 0s
param **.sink_133.numApps 1
param **.sink_133.app[0].typename "\"TcpGenericServerApp\""
param **.sink_133.app[0].localAddress "\"\""
param **.sink_133.app[0].localPort 1100
param **.sink_133.app[0].replyDelay 0s
param **.sink_134.numApps 1
param **.sink_134.app[0].typename "\"TcpGenericServerApp\""
param **.sink_134.app[0].localAddress "\"\""
param **.sink_134.app[0].localPort 1100
param **.sink_134.app[0].replyDelay 0s
param **.sink_135.numApps 1
param **.sink_135.app[0].typename "\"TcpGenericServerApp\""
param **.sink_135.app[0].localAddress "\"\""
param **.sink_135.app[0].localPort 1100
param **.sink_135.app[0].replyDelay 0s
param **.sink_136.numApps 1
param **.sink_136.app[0].typename "\"TcpGenericServerApp\""
param **.sink_136.app[0].localAddress "\"\""
param **.sink_136.app[0].localPort 1100
param **.sink_136.app[0].replyDelay 0s
param **.sink_137.numApps 1
param **.sink_137.app[0].typename "\"TcpGenericServerApp\""
param **.sink_137.app[0].localAddress "\"\""
param **.sink_137.app[0].localPort 1100
param **.sink_137.app[0].replyDelay 0s
param **.sink_138.numApps 1
param **.sink_138.app[0].typename "\"TcpGenericServerApp\""
param **.sink_138.app[0].localAddress "\"\""
param **.sink_138.app[0].localPort 1100
param **.sink_138.app[0].replyDelay 0s
param **.sink_139.numApps 1
param **.sink_139.app[0].typename "\"TcpGenericServerApp\""
param **.sink_139.app[0].localAddress "\"\""
param **.sink_139.app[0].localPort 1100
param **.sink_139.app[0].replyDelay 0s
param **.sink_140.numApps 1
param **.sink_140.app[0].typename "\"TcpGenericServerApp\""
param **.sink_140.app[0].localAddress "\"\""
param **.sink_140.app[0].localPort 1100
param **.sink_140.app[0].replyDelay 0s
param **.sink_141.numApps 1
param **.sink_141.app[0].typename "\"TcpGenericServerApp\""
param **.sink_141.app[0].localAddress "\"\""
param **.sink_141.app[0].localPort 1100
param **.sink_141.app[0].replyDelay 0s
param **.sink_142.numApps 1
param **.sink_142.app[0].typename "\"TcpGenericServerApp\""
param **.sink_142.app[0].localAddress "\"\""
param **.sink_142.app[0].localPort 1100
param **.sink_142.app[0].replyDelay 0s
param **.sink_143.numApps 1
param **.sink_143.app[0].typename "\"TcpGenericServerApp\""
param **.sink_143.app[0].localAddress "\"\""
param **.sink_143.app[0].localPort 1100
param **.sink_143.app[0].replyDelay 0s
param **.sink_144.numApps 1
param **.sink_144.app[0].typename "\"TcpGenericServerApp\""
param **.sink_144.app[0].localAddress "\"\""
param **.sink_144.app[0].localPort 1100
param **.sink_144.app[0].replyDelay 0s
param **.sink_145.numApps 1
param **.sink_145.app[0].typename "\"TcpGenericServerApp\""
param **.sink_145.app[0].localAddress "\"\""
param **.sink_145.app[0].localPort 1100
param **.sink_145.app[0].replyDelay 0s
param **.sink_146.numApps 1
param **.sink_146.app[0].typename "\"TcpGenericServerApp\""
param **.sink_146.app[0].localAddress "\"\""
param **.sink_146.app[0].localPort 1100
param **.sink_146.app[0].replyDelay 0s
param **.sink_147.numApps 1
param **.sink_147.app[0].typename "\"TcpGenericServerApp\""
param **.sink_147.app[0].localAddress "\"\""
param **.sink_147.app[0].localPort 1100
param **.sink_147.app[0].replyDelay 0s
param **.sink_148.numApps 1
param **.sink_148.app[0].typename "\"TcpGenericServerApp\""
param **.sink_148.app[0].localAddress "\"\""
param **.sink_148.app[0].localPort 1100
param **.sink_148.app[0].replyDelay 0s
param **.sink_149.numApps 1
param **.sink_149.app[0].typename "\"TcpGenericServerApp\""
param **.sink_149.app[0].localAddress "\"\""
param **.sink_149.app[0].localPort 1100
param **.sink_149.app[0].replyDelay 0s
param **.sink_150.numApps 1
param **.sink_150.app[0].typename "\"TcpGenericServerApp\""
param **.sink_150.app[0].localAddress "\"\""
param **.sink_150.app[0].localPort 1100
param **.sink_150.app[0].replyDelay 0s
param **.sink_151.numApps 1
param **.sink_151.app[0].typename "\"TcpGenericServerApp\""
param **.sink_151.app[0].localAddress "\"\""
param **.sink_151.app[0].localPort 1100
param **.sink_151.app[0].replyDelay 0s
param **.sink_152.numApps 1
param **.sink_152.app[0].typename "\"TcpGenericServerApp\""
param **.sink_152.app[0].localAddress "\"\""
param **.sink_152.app[0].localPort 1100
param **.sink_152.app[0].replyDelay 0s
param **.sink_153.numApps 1
param **.sink_153.app[0].typename "\"TcpGenericServerApp\""
param **.sink_153.app[0].localAddress "\"\""
param **.sink_153.app[0].localPort 1100
param **.sink_153.app[0].replyDelay 0s
param **.sink_154.numApps 1
param **.sink_154.app[0].typename "\"TcpGenericServerApp\""
param **.sink_154.app[0].localAddress "\"\""
param **.sink_154.app[0].localPort 1100
param **.sink_154.app[0].replyDelay 0s
param **.sink_155.numApps 1
param **.sink_155.app[0].typename "\"TcpGenericServerApp\""
param **.sink_155.app[0].localAddress "\"\""
param **.sink_155.app[0].localPort 1100
param **.sink_155.app[0].replyDelay 0s
param **.sink_156.numApps 1
param **.sink_156.app[0].typename "\"TcpGenericServerApp\""
param **.sink_156.app[0].localAddress "\"\""
param **.sink_156.app[0].localPort 1100
param **.sink_156.app[0].replyDelay 0s
param **.sink_157.numApps 1
param **.sink_157.app[0].typename "\"TcpGenericServerApp\""
param **.sink_157.app[0].localAddress "\"\""
param **.sink_157.app[0].localPort 1100
param **.sink_157.app[0].replyDelay 0s
param **.sink_158.numApps 1
param **.sink_158.app[0].typename "\"TcpGenericServerApp\""
param **.sink_158.app[0].localAddress "\"\""
param **.sink_158.app[0].localPort 1100
param **.sink_158.app[0].replyDelay 0s
param **.sink_159.numApps 1
param **.sink_159.app[0].typename "\"TcpGenericServerApp\""
param **.sink_159.app[0].localAddress "\"\""
param **.sink_159.app[0].localPort 1100
param **.sink_159.app[0].replyDelay 0s
param **.sink_160.numApps 1
param **.sink_160.app[0].typename "\"TcpGenericServerApp\""
param **.sink_160.app[0].localAddress "\"\""
param **.sink_160.app[0].localPort 1100
param **.sink_160.app[0].replyDelay 0s
param **.sink_161.numApps 1
param **.sink_161.app[0].typename "\"TcpGenericServerApp\""
param **.sink_161.app[0].localAddress "\"\""
param **.sink_161.app[0].localPort 1100
param **.sink_161.app[0].replyDelay 0s
param **.sink_162.numApps 1
param **.sink_162.app[0].typename "\"TcpGenericServerApp\""
param **.sink_162.app[0].localAddress "\"\""
param **.sink_162.app[0].localPort 1100
param **.sink_162.app[0].replyDelay 0s
param **.sink_163.numApps 1
param **.sink_163.app[0].typename "\"TcpGenericServerApp\""
param **.sink_163.app[0].localAddress "\"\""
param **.sink_163.app[0].localPort 1100
param **.sink_163.app[0].replyDelay 0s
param **.sink_164.numApps 1
param **.sink_164.app[0].typename "\"TcpGenericServerApp\""
param **.sink_164.app[0].localAddress "\"\""
param **.sink_164.app[0].localPort 1100
param **.sink_164.app[0].replyDelay 0s
param **.sink_165.numApps 1
param **.sink_165.app[0].typename "\"TcpGenericServerApp\""
param **.sink_165.app[0].localAddress "\"\""
param **.sink_165.app[0].localPort 1100
param **.sink_165.app[0].replyDelay 0s
param **.sink_166.numApps 1
param **.sink_166.app[0].typename "\"TcpGenericServerApp\""
param **.sink_166.app[0].localAddress "\"\""
param **.sink_166.app[0].localPort 1100
param **.sink_166.app[0].replyDelay 0s
param **.sink_167.numApps 1
param **.sink_167.app[0].typename "\"TcpGenericServerApp\""
param **.sink_167.app[0].localAddress "\"\""
param **.sink_167.app[0].localPort 1100
param **.sink_167.app[0].replyDelay 0s
param **.sink_168.numApps 1
param **.sink_168.app[0].typename "\"TcpGenericServerApp\""
param **.sink_168.app[0].localAddress "\"\""
param **.sink_168.app[0].localPort 1100
param **.sink_168.app[0].replyDelay 0s
param **.sink_169.numApps 1
param **.sink_169.app[0].typename "\"TcpGenericServerApp\""
param **.sink_169.app[0].localAddress "\"\""
param **.sink_169.app[0].localPort 1100
param **.sink_169.app[0].replyDelay 0s
param **.sink_170.numApps 1
param **.sink_170.app[0].typename "\"TcpGenericServerApp\""
param **.sink_170.app[0].localAddress "\"\""
param **.sink_170.app[0].localPort 1100
param **.sink_170.app[0].replyDelay 0s
param **.sink_171.numApps 1
param **.sink_171.app[0].typename "\"TcpGenericServerApp\""
param **.sink_171.app[0].localAddress "\"\""
param **.sink_171.app[0].localPort 1100
param **.sink_171.app[0].replyDelay 0s
param **.sink_172.numApps 1
param **.sink_172.app[0].typename "\"TcpGenericServerApp\""
param **.sink_172.app[0].localAddress "\"\""
param **.sink_172.app[0].localPort 1100
param **.sink_172.app[0].replyDelay 0s
param **.sink_173.numApps 1
param **.sink_173.app[0].typename "\"TcpGenericServerApp\""
param **.sink_173.app[0].localAddress "\"\""
param **.sink_173.app[0].localPort 1100
param **.sink_173.app[0].replyDelay 0s
param **.sink_174.numApps 1
param **.sink_174.app[0].typename "\"TcpGenericServerApp\""
param **.sink_174.app[0].localAddress "\"\""
param **.sink_174.app[0].localPort 1100
param **.sink_174.app[0].replyDelay 0s
param **.sink_175.numApps 1
param **.sink_175.app[0].typename "\"TcpGenericServerApp\""
param **.sink_175.app[0].localAddress "\"\""
param **.sink_175.app[0].localPort 1100
param **.sink_175.app[0].replyDelay 0s
param **.sink_176.numApps 1
param **.sink_176.app[0].typename "\"TcpGenericServerApp\""
param **.sink_176.app[0].localAddress "\"\""
param **.sink_176.app[0].localPort 1100
param **.sink_176.app[0].replyDelay 0s
param **.sink_177.numApps 1
param **.sink_177.app[0].typename "\"TcpGenericServerApp\""
param **.sink_177.app[0].localAddress "\"\""
param **.sink_177.app[0].localPort 1100
param **.sink_177.app[0].replyDelay 0s
param **.sink_178.numApps 1
param **.sink_178.app[0].typename "\"TcpGenericServerApp\""
param **.sink_178.app[0].localAddress "\"\""
param **.sink_178.app[0].localPort 1100
param **.sink_178.app[0].replyDelay 0s
param **.sink_179.numApps 1
param **.sink_179.app[0].typename "\"TcpGenericServerApp\""
param **.sink_179.app[0].localAddress "\"\""
param **.sink_179.app[0].localPort 1100
param **.sink_179.app[0].replyDelay 0s
param **.sink_180.numApps 1
param **.sink_180.app[0].typename "\"TcpGenericServerApp\""
param **.sink_180.app[0].localAddress "\"\""
param **.sink_180.app[0].localPort 1100
param **.sink_180.app[0].replyDelay 0s
param **.sink_181.numApps 1
param **.sink_181.app[0].typename "\"TcpGenericServerApp\""
param **.sink_181.app[0].localAddress "\"\""
param **.sink_181.app[0].localPort 1100
param **.sink_181.app[0].replyDelay 0s
param **.sink_182.numApps 1
param **.sink_182.app[0].typename "\"TcpGenericServerApp\""
param **.sink_182.app[0].localAddress "\"\""
param **.sink_182.app[0].localPort 1100
param **.sink_182.app[0].replyDelay 0s
param **.sink_183.numApps 1
param **.sink_183.app[0].typename "\"TcpGenericServerApp\""
param **.sink_183.app[0].localAddress "\"\""
param **.sink_183.app[0].localPort 1100
param **.sink_183.app[0].replyDelay 0s
param **.sink_184.numApps 1
param **.sink_184.app[0].typename "\"TcpGenericServerApp\""
param **.sink_184.app[0].localAddress "\"\""
param **.sink_184.app[0].localPort 1100
param **.sink_184.app[0].replyDelay 0s
param **.sink_185.numApps 1
param **.sink_185.app[0].typename "\"TcpGenericServerApp\""
param **.sink_185.app[0].localAddress "\"\""
param **.sink_185.app[0].localPort 1100
param **.sink_185.app[0].replyDelay 0s
param **.sink_186.numApps 1
param **.sink_186.app[0].typename "\"TcpGenericServerApp\""
param **.sink_186.app[0].localAddress "\"\""
param **.sink_186.app[0].localPort 1100
param **.sink_186.app[0].replyDelay 0s
param **.sink_187.numApps 1
param **.sink_187.app[0].typename "\"TcpGenericServerApp\""
param **.sink_187.app[0].localAddress "\"\""
param **.sink_187.app[0].localPort 1100
param **.sink_187.app[0].replyDelay 0s
param **.sink_188.numApps 1
param **.sink_188.app[0].typename "\"TcpGenericServerApp\""
param **.sink_188.app[0].localAddress "\"\""
param **.sink_188.app[0].localPort 1100
param **.sink_188.app[0].replyDelay 0s
param **.sink_189.numApps 1
param **.sink_189.app[0].typename "\"TcpGenericServerApp\""
param **.sink_189.app[0].localAddress "\"\""
param **.sink_189.app[0].localPort 1100
param **.sink_189.app[0].replyDelay 0s
param **.sink_190.numApps 1
param **.sink_190.app[0].typename "\"TcpGenericServerApp\""
param **.sink_190.app[0].localAddress "\"\""
param **.sink_190.app[0].localPort 1100
param **.sink_190.app[0].replyDelay 0s
param **.sink_191.numApps 1
param **.sink_191.app[0].typename "\"TcpGenericServerApp\""
param **.sink_191.app[0].localAddress "\"\""
param **.sink_191.app[0].localPort 1100
param **.sink_191.app[0].replyDelay 0s
param **.sink_192.numApps 1
param **.sink_192.app[0].typename "\"TcpGenericServerApp\""
param **.sink_192.app[0].localAddress "\"\""
param **.sink_192.app[0].localPort 1100
param **.sink_192.app[0].replyDelay 0s
param **.sink_193.numApps 1
param **.sink_193.app[0].typename "\"TcpGenericServerApp\""
param **.sink_193.app[0].localAddress "\"\""
param **.sink_193.app[0].localPort 1100
param **.sink_193.app[0].replyDelay 0s
param **.sink_194.numApps 1
param **.sink_194.app[0].typename "\"TcpGenericServerApp\""
param **.sink_194.app[0].localAddress "\"\""
param **.sink_194.app[0].localPort 1100
param **.sink_194.app[0].replyDelay 0s
param **.sink_195.numApps 1
param **.sink_195.app[0].typename "\"TcpGenericServerApp\""
param **.sink_195.app[0].localAddress "\"\""
param **.sink_195.app[0].localPort 1100
param **.sink_195.app[0].replyDelay 0s
param **.sink_196.numApps 1
param **.sink_196.app[0].typename "\"TcpGenericServerApp\""
param **.sink_196.app[0].localAddress "\"\""
param **.sink_196.app[0].localPort 1100
param **.sink_196.app[0].replyDelay 0s
param **.sink_197.numApps 1
param **.sink_197.app[0].typename "\"TcpGenericServerApp\""
param **.sink_197.app[0].localAddress "\"\""
param **.sink_197.app[0].localPort 1100
param **.sink_197.app[0].replyDelay 0s
param **.sink_198.numApps 1
param **.sink_198.app[0].typename "\"TcpGenericServerApp\""
param **.sink_198.app[0].localAddress "\"\""
param **.sink_198.app[0].localPort 1100
param **.sink_198.app[0].replyDelay 0s
param **.sink_199.numApps 1
param **.sink_199.app[0].typename "\"TcpGenericServerApp\""
param **.sink_199.app[0].localAddress "\"\""
param **.sink_199.app[0].localPort 1100
param **.sink_199.app[0].replyDelay 0s
param **.sink_200.numApps 1
param **.sink_200.app[0].typename "\"TcpGenericServerApp\""
param **.sink_200.app[0].localAddress "\"\""
param **.sink_200.app[0].localPort 1100
param **.sink_200.app[0].replyDelay 0s
param **.sink_201.numApps 1
param **.sink_201.app[0].typename "\"TcpGenericServerApp\""
param **.sink_201.app[0].localAddress "\"\""
param **.sink_201.app[0].localPort 1100
param **.sink_201.app[0].replyDelay 0s
param **.sink_202.numApps 1
param **.sink_202.app[0].typename "\"TcpGenericServerApp\""
param **.sink_202.app[0].localAddress "\"\""
param **.sink_202.app[0].localPort 1100
param **.sink_202.app[0].replyDelay 0s
param **.sink_203.numApps 1
param **.sink_203.app[0].typename "\"TcpGenericServerApp\""
param **.sink_203.app[0].localAddress "\"\""
param **.sink_203.app[0].localPort 1100
param **.sink_203.app[0].replyDelay 0s
param **.sink_204.numApps 1
param **.sink_204.app[0].typename "\"TcpGenericServerApp\""
param **.sink_204.app[0].localAddress "\"\""
param **.sink_204.app[0].localPort 1100
param **.sink_204.app[0].replyDelay 0s
param **.sink_205.numApps 1
param **.sink_205.app[0].typename "\"TcpGenericServerApp\""
param **.sink_205.app[0].localAddress "\"\""
param **.sink_205.app[0].localPort 1100
param **.sink_205.app[0].replyDelay 0s
param **.sink_206.numApps 1
param **.sink_206.app[0].typename "\"TcpGenericServerApp\""
param **.sink_206.app[0].localAddress "\"\""
param **.sink_206.app[0].localPort 1100
param **.sink_206.app[0].replyDelay 0s
param **.sink_207.numApps 1
param **.sink_207.app[0].typename "\"TcpGenericServerApp\""
param **.sink_207.app[0].localAddress "\"\""
param **.sink_207.app[0].localPort 1100
param **.sink_207.app[0].replyDelay 0s
param **.sink_208.numApps 1
param **.sink_208.app[0].typename "\"TcpGenericServerApp\""
param **.sink_208.app[0].localAddress "\"\""
param **.sink_208.app[0].localPort 1100
param **.sink_208.app[0].replyDelay 0s
param **.sink_209.numApps 1
param **.sink_209.app[0].typename "\"TcpGenericServerApp\""
param **.sink_209.app[0].localAddress "\"\""
param **.sink_209.app[0].localPort 1100
param **.sink_209.app[0].replyDelay 0s
param **.sink_210.numApps 1
param **.sink_210.app[0].typename "\"TcpGenericServerApp\""
param **.sink_210.app[0].localAddress "\"\""
param **.sink_210.app[0].localPort 1100
param **.sink_210.app[0].replyDelay 0s
param **.sink_211.numApps 1
param **.sink_211.app[0].typename "\"TcpGenericServerApp\""
param **.sink_211.app[0].localAddress "\"\""
param **.sink_211.app[0].localPort 1100
param **.sink_211.app[0].replyDelay 0s
param **.sink_212.numApps 1
param **.sink_212.app[0].typename "\"TcpGenericServerApp\""
param **.sink_212.app[0].localAddress "\"\""
param **.sink_212.app[0].localPort 1100
param **.sink_212.app[0].replyDelay 0s
param **.sink_213.numApps 1
param **.sink_213.app[0].typename "\"TcpGenericServerApp\""
param **.sink_213.app[0].localAddress "\"\""
param **.sink_213.app[0].localPort 1100
param **.sink_213.app[0].replyDelay 0s
param **.sink_214.numApps 1
param **.sink_214.app[0].typename "\"TcpGenericServerApp\""
param **.sink_214.app[0].localAddress "\"\""
param **.sink_214.app[0].localPort 1100
param **.sink_214.app[0].replyDelay 0s
param **.sink_215.numApps 1
param **.sink_215.app[0].typename "\"TcpGenericServerApp\""
param **.sink_215.app[0].localAddress "\"\""
param **.sink_215.app[0].localPort 1100
param **.sink_215.app[0].replyDelay 0s
param **.sink_216.numApps 1
param **.sink_216.app[0].typename "\"TcpGenericServerApp\""
param **.sink_216.app[0].localAddress "\"\""
param **.sink_216.app[0].localPort 1100
param **.sink_216.app[0].replyDelay 0s
param **.sink_217.numApps 1
param **.sink_217.app[0].typename "\"TcpGenericServerApp\""
param **.sink_217.app[0].localAddress "\"\""
param **.sink_217.app[0].localPort 1100
param **.sink_217.app[0].replyDelay 0s
param **.sink_218.numApps 1
param **.sink_218.app[0].typename "\"TcpGenericServerApp\""
param **.sink_218.app[0].localAddress "\"\""
param **.sink_218.app[0].localPort 1100
param **.sink_218.app[0].replyDelay 0s
param **.sink_219.numApps 1
param **.sink_219.app[0].typename "\"TcpGenericServerApp\""
param **.sink_219.app[0].localAddress "\"\""
param **.sink_219.app[0].localPort 1100
param **.sink_219.app[0].replyDelay 0s
param **.sink_220.numApps 1
param **.sink_220.app[0].typename "\"TcpGenericServerApp\""
param **.sink_220.app[0].localAddress "\"\""
param **.sink_220.app[0].localPort 1100
param **.sink_220.app[0].replyDelay 0s
param **.sink_221.numApps 1
param **.sink_221.app[0].typename "\"TcpGenericServerApp\""
param **.sink_221.app[0].localAddress "\"\""
param **.sink_221.app[0].localPort 1100
param **.sink_221.app[0].replyDelay 0s
param **.sink_222.numApps 1
param **.sink_222.app[0].typename "\"TcpGenericServerApp\""
param **.sink_222.app[0].localAddress "\"\""
param **.sink_222.app[0].localPort 1100
param **.sink_222.app[0].replyDelay 0s
param **.sink_223.numApps 1
param **.sink_223.app[0].typename "\"TcpGenericServerApp\""
param **.sink_223.app[0].localAddress "\"\""
param **.sink_223.app[0].localPort 1100
param **.sink_223.app[0].replyDelay 0s
param **.sink_224.numApps 1
param **.sink_224.app[0].typename "\"TcpGenericServerApp\""
param **.sink_224.app[0].localAddress "\"\""
param **.sink_224.app[0].localPort 1100
param **.sink_224.app[0].replyDelay 0s
param **.sink_225.numApps 1
param **.sink_225.app[0].typename "\"TcpGenericServerApp\""
param **.sink_225.app[0].localAddress "\"\""
param **.sink_225.app[0].localPort 1100
param **.sink_225.app[0].replyDelay 0s
param **.sink_226.numApps 1
param **.sink_226.app[0].typename "\"TcpGenericServerApp\""
param **.sink_226.app[0].localAddress "\"\""
param **.sink_226.app[0].localPort 1100
param **.sink_226.app[0].replyDelay 0s
param **.sink_227.numApps 1
param **.sink_227.app[0].typename "\"TcpGenericServerApp\""
param **.sink_227.app[0].localAddress "\"\""
param **.sink_227.app[0].localPort 1100
param **.sink_227.app[0].replyDelay 0s
param **.sink_228.numApps 1
param **.sink_228.app[0].typename "\"TcpGenericServerApp\""
param **.sink_228.app[0].localAddress "\"\""
param **.sink_228.app[0].localPort 1100
param **.sink_228.app[0].replyDelay 0s
param **.sink_229.numApps 1
param **.sink_229.app[0].typename "\"TcpGenericServerApp\""
param **.sink_229.app[0].localAddress "\"\""
param **.sink_229.app[0].localPort 1100
param **.sink_229.app[0].replyDelay 0s
param **.sink_230.numApps 1
param **.sink_230.app[0].typename "\"TcpGenericServerApp\""
param **.sink_230.app[0].localAddress "\"\""
param **.sink_230.app[0].localPort 1100
param **.sink_230.app[0].replyDelay 0s
param **.sink_231.numApps 1
param **.sink_231.app[0].typename "\"TcpGenericServerApp\""
param **.sink_231.app[0].localAddress "\"\""
param **.sink_231.app[0].localPort 1100
param **.sink_231.app[0].replyDelay 0s
param **.sink_232.numApps 1
param **.sink_232.app[0].typename "\"TcpGenericServerApp\""
param **.sink_232.app[0].localAddress "\"\""
param **.sink_232.app[0].localPort 1100
param **.sink_232.app[0].replyDelay 0s
param **.sink_233.numApps 1
param **.sink_233.app[0].typename "\"TcpGenericServerApp\""
param **.sink_233.app[0].localAddress "\"\""
param **.sink_233.app[0].localPort 1100
param **.sink_233.app[0].replyDelay 0s
param **.sink_234.numApps 1
param **.sink_234.app[0].typename "\"TcpGenericServerApp\""
param **.sink_234.app[0].localAddress "\"\""
param **.sink_234.app[0].localPort 1100
param **.sink_234.app[0].replyDelay 0s
param **.sink_235.numApps 1
param **.sink_235.app[0].typename "\"TcpGenericServerApp\""
param **.sink_235.app[0].localAddress "\"\""
param **.sink_235.app[0].localPort 1100
param **.sink_235.app[0].replyDelay 0s
param **.sink_236.numApps 1
param **.sink_236.app[0].typename "\"TcpGenericServerApp\""
param **.sink_236.app[0].localAddress "\"\""
param **.sink_236.app[0].localPort 1100
param **.sink_236.app[0].replyDelay 0s
param **.sink_237.numApps 1
param **.sink_237.app[0].typename "\"TcpGenericServerApp\""
param **.sink_237.app[0].localAddress "\"\""
param **.sink_237.app[0].localPort 1100
param **.sink_237.app[0].replyDelay 0s
param **.sink_238.numApps 1
param **.sink_238.app[0].typename "\"TcpGenericServerApp\""
param **.sink_238.app[0].localAddress "\"\""
param **.sink_238.app[0].localPort 1100
param **.sink_238.app[0].replyDelay 0s
param **.sink_239.numApps 1
param **.sink_239.app[0].typename "\"TcpGenericServerApp\""
param **.sink_239.app[0].localAddress "\"\""
param **.sink_239.app[0].localPort 1100
param **.sink_239.app[0].replyDelay 0s
param **.sink_240.numApps 1
param **.sink_240.app[0].typename "\"TcpGenericServerApp\""
param **.sink_240.app[0].localAddress "\"\""
param **.sink_240.app[0].localPort 1100
param **.sink_240.app[0].replyDelay 0s
param **.sink_241.numApps 1
param **.sink_241.app[0].typename "\"TcpGenericServerApp\""
param **.sink_241.app[0].localAddress "\"\""
param **.sink_241.app[0].localPort 1100
param **.sink_241.app[0].replyDelay 0s
param **.sink_242.numApps 1
param **.sink_242.app[0].typename "\"TcpGenericServerApp\""
param **.sink_242.app[0].localAddress "\"\""
param **.sink_242.app[0].localPort 1100
param **.sink_242.app[0].replyDelay 0s
param **.sink_243.numApps 1
param **.sink_243.app[0].typename "\"TcpGenericServerApp\""
param **.sink_243.app[0].localAddress "\"\""
param **.sink_243.app[0].localPort 1100
param **.sink_243.app[0].replyDelay 0s
param **.sink_244.numApps 1
param **.sink_244.app[0].typename "\"TcpGenericServerApp\""
param **.sink_244.app[0].localAddress "\"\""
param **.sink_244.app[0].localPort 1100
param **.sink_244.app[0].replyDelay 0s
param **.sink_245.numApps 1
param **.sink_245.app[0].typename "\"TcpGenericServerApp\""
param **.sink_245.app[0].localAddress "\"\""
param **.sink_245.app[0].localPort 1100
param **.sink_245.app[0].replyDelay 0s
param **.sink_246.numApps 1
param **.sink_246.app[0].typename "\"TcpGenericServerApp\""
param **.sink_246.app[0].localAddress "\"\""
param **.sink_246.app[0].localPort 1100
param **.sink_246.app[0].replyDelay 0s
param **.sink_247.numApps 1
param **.sink_247.app[0].typename "\"TcpGenericServerApp\""
param **.sink_247.app[0].localAddress "\"\""
param **.sink_247.app[0].localPort 1100
param **.sink_247.app[0].replyDelay 0s
param **.sink_248.numApps 1
param **.sink_248.app[0].typename "\"TcpGenericServerApp\""
param **.sink_248.app[0].localAddress "\"\""
param **.sink_248.app[0].localPort 1100
param **.sink_248.app[0].replyDelay 0s
param **.sink_249.numApps 1
param **.sink_249.app[0].typename "\"TcpGenericServerApp\""
param **.sink_249.app[0].localAddress "\"\""
param **.sink_249.app[0].localPort 1100
param **.sink_249.app[0].replyDelay 0s
param **.sink_250.numApps 1
param **.sink_250.app[0].typename "\"TcpGenericServerApp\""
param **.sink_250.app[0].localAddress "\"\""
param **.sink_250.app[0].localPort 1100
param **.sink_250.app[0].replyDelay 0s
param **.sink_251.numApps 1
param **.sink_251.app[0].typename "\"TcpGenericServerApp\""
param **.sink_251.app[0].localAddress "\"\""
param **.sink_251.app[0].localPort 1100
param **.sink_251.app[0].replyDelay 0s
param **.sink_252.numApps 1
param **.sink_252.app[0].typename "\"TcpGenericServerApp\""
param **.sink_252.app[0].localAddress "\"\""
param **.sink_252.app[0].localPort 1100
param **.sink_252.app[0].replyDelay 0s
param **.sink_253.numApps 1
param **.sink_253.app[0].typename "\"TcpGenericServerApp\""
param **.sink_253.app[0].localAddress "\"\""
param **.sink_253.app[0].localPort 1100
param **.sink_253.app[0].replyDelay 0s
param **.sink_254.numApps 1
param **.sink_254.app[0].typename "\"TcpGenericServerApp\""
param **.sink_254.app[0].localAddress "\"\""
param **.sink_254.app[0].localPort 1100
param **.sink_254.app[0].replyDelay 0s
param **.sink_255.numApps 1
param **.sink_255.app[0].typename "\"TcpGenericServerApp\""
param **.sink_255.app[0].localAddress "\"\""
param **.sink_255.app[0].localPort 1100
param **.sink_255.app[0].replyDelay 0s
param **.sink_256.numApps 1
param **.sink_256.app[0].typename "\"TcpGenericServerApp\""
param **.sink_256.app[0].localAddress "\"\""
param **.sink_256.app[0].localPort 1100
param **.sink_256.app[0].replyDelay 0s
param **.sink_257.numApps 1
param **.sink_257.app[0].typename "\"TcpGenericServerApp\""
param **.sink_257.app[0].localAddress "\"\""
param **.sink_257.app[0].localPort 1100
param **.sink_257.app[0].replyDelay 0s
param **.sink_258.numApps 1
param **.sink_258.app[0].typename "\"TcpGenericServerApp\""
param **.sink_258.app[0].localAddress "\"\""
param **.sink_258.app[0].localPort 1100
param **.sink_258.app[0].replyDelay 0s
param **.sink_259.numApps 1
param **.sink_259.app[0].typename "\"TcpGenericServerApp\""
param **.sink_259.app[0].localAddress "\"\""
param **.sink_259.app[0].localPort 1100
param **.sink_259.app[0].replyDelay 0s
param **.sink_260.numApps 1
param **.sink_260.app[0].typename "\"TcpGenericServerApp\""
param **.sink_260.app[0].localAddress "\"\""
param **.sink_260.app[0].localPort 1100
param **.sink_260.app[0].replyDelay 0s
param **.sink_261.numApps 1
param **.sink_261.app[0].typename "\"TcpGenericServerApp\""
param **.sink_261.app[0].localAddress "\"\""
param **.sink_261.app[0].localPort 1100
param **.sink_261.app[0].replyDelay 0s
param **.sink_262.numApps 1
param **.sink_262.app[0].typename "\"TcpGenericServerApp\""
param **.sink_262.app[0].localAddress "\"\""
param **.sink_262.app[0].localPort 1100
param **.sink_262.app[0].replyDelay 0s
param **.sink_263.numApps 1
param **.sink_263.app[0].typename "\"TcpGenericServerApp\""
param **.sink_263.app[0].localAddress "\"\""
param **.sink_263.app[0].localPort 1100
param **.sink_263.app[0].replyDelay 0s
param **.sink_264.numApps 1
param **.sink_264.app[0].typename "\"TcpGenericServerApp\""
param **.sink_264.app[0].localAddress "\"\""
param **.sink_264.app[0].localPort 1100
param **.sink_264.app[0].replyDelay 0s
param **.sink_265.numApps 1
param **.sink_265.app[0].typename "\"TcpGenericServerApp\""
param **.sink_265.app[0].localAddress "\"\""
param **.sink_265.app[0].localPort 1100
param **.sink_265.app[0].replyDelay 0s
param **.sink_266.numApps 1
param **.sink_266.app[0].typename "\"TcpGenericServerApp\""
param **.sink_266.app[0].localAddress "\"\""
param **.sink_266.app[0].localPort 1100
param **.sink_266.app[0].replyDelay 0s
param **.sink_267.numApps 1
param **.sink_267.app[0].typename "\"TcpGenericServerApp\""
param **.sink_267.app[0].localAddress "\"\""
param **.sink_267.app[0].localPort 1100
param **.sink_267.app[0].replyDelay 0s
param **.sink_268.numApps 1
param **.sink_268.app[0].typename "\"TcpGenericServerApp\""
param **.sink_268.app[0].localAddress "\"\""
param **.sink_268.app[0].localPort 1100
param **.sink_268.app[0].replyDelay 0s
param **.sink_269.numApps 1
param **.sink_269.app[0].typename "\"TcpGenericServerApp\""
param **.sink_269.app[0].localAddress "\"\""
param **.sink_269.app[0].localPort 1100
param **.sink_269.app[0].replyDelay 0s
param **.sink_270.numApps 1
param **.sink_270.app[0].typename "\"TcpGenericServerApp\""
param **.sink_270.app[0].localAddress "\"\""
param **.sink_270.app[0].localPort 1100
param **.sink_270.app[0].replyDelay 0s
param **.sink_271.numApps 1
param **.sink_271.app[0].typename "\"TcpGenericServerApp\""
param **.sink_271.app[0].localAddress "\"\""
param **.sink_271.app[0].localPort 1100
param **.sink_271.app[0].replyDelay 0s
param **.sink_272.numApps 1
param **.sink_272.app[0].typename "\"TcpGenericServerApp\""
param **.sink_272.app[0].localAddress "\"\""
param **.sink_272.app[0].localPort 1100
param **.sink_272.app[0].replyDelay 0s
param **.sink_273.numApps 1
param **.sink_273.app[0].typename "\"TcpGenericServerApp\""
param **.sink_273.app[0].localAddress "\"\""
param **.sink_273.app[0].localPort 1100
param **.sink_273.app[0].replyDelay 0s
param **.sink_274.numApps 1
param **.sink_274.app[0].typename "\"TcpGenericServerApp\""
param **.sink_274.app[0].localAddress "\"\""
param **.sink_274.app[0].localPort 1100
param **.sink_274.app[0].replyDelay 0s
param **.sink_275.numApps 1
param **.sink_275.app[0].typename "\"TcpGenericServerApp\""
param **.sink_275.app[0].localAddress "\"\""
param **.sink_275.app[0].localPort 1100
param **.sink_275.app[0].replyDelay 0s
param **.sink_276.numApps 1
param **.sink_276.app[0].typename "\"TcpGenericServerApp\""
param **.sink_276.app[0].localAddress "\"\""
param **.sink_276.app[0].localPort 1100
param **.sink_276.app[0].replyDelay 0s
param **.sink_277.numApps 1
param **.sink_277.app[0].typename "\"TcpGenericServerApp\""
param **.sink_277.app[0].localAddress "\"\""
param **.sink_277.app[0].localPort 1100
param **.sink_277.app[0].replyDelay 0s
param **.sink_278.numApps 1
param **.sink_278.app[0].typename "\"TcpGenericServerApp\""
param **.sink_278.app[0].localAddress "\"\""
param **.sink_278.app[0].localPort 1100
param **.sink_278.app[0].replyDelay 0s
param **.sink_279.numApps 1
param **.sink_279.app[0].typename "\"TcpGenericServerApp\""
param **.sink_279.app[0].localAddress "\"\""
param **.sink_279.app[0].localPort 1100
param **.sink_279.app[0].replyDelay 0s
param **.sink_280.numApps 1
param **.sink_280.app[0].typename "\"TcpGenericServerApp\""
param **.sink_280.app[0].localAddress "\"\""
param **.sink_280.app[0].localPort 1100
param **.sink_280.app[0].replyDelay 0s
param **.sink_281.numApps 1
param **.sink_281.app[0].typename "\"TcpGenericServerApp\""
param **.sink_281.app[0].localAddress "\"\""
param **.sink_281.app[0].localPort 1100
param **.sink_281.app[0].replyDelay 0s
param **.sink_282.numApps 1
param **.sink_282.app[0].typename "\"TcpGenericServerApp\""
param **.sink_282.app[0].localAddress "\"\""
param **.sink_282.app[0].localPort 1100
param **.sink_282.app[0].replyDelay 0s
param **.sink_283.numApps 1
param **.sink_283.app[0].typename "\"TcpGenericServerApp\""
param **.sink_283.app[0].localAddress "\"\""
param **.sink_283.app[0].localPort 1100
param **.sink_283.app[0].replyDelay 0s
param **.sink_284.numApps 1
param **.sink_284.app[0].typename "\"TcpGenericServerApp\""
param **.sink_284.app[0].localAddress "\"\""
param **.sink_284.app[0].localPort 1100
param **.sink_284.app[0].replyDelay 0s
param **.sink_285.numApps 1
param **.sink_285.app[0].typename "\"TcpGenericServerApp\""
param **.sink_285.app[0].localAddress "\"\""
param **.sink_285.app[0].localPort 1100
param **.sink_285.app[0].replyDelay 0s
param **.sink_286.numApps 1
param **.sink_286.app[0].typename "\"TcpGenericServerApp\""
param **.sink_286.app[0].localAddress "\"\""
param **.sink_286.app[0].localPort 1100
param **.sink_286.app[0].replyDelay 0s
param **.sink_287.numApps 1
param **.sink_287.app[0].typename "\"TcpGenericServerApp\""
param **.sink_287.app[0].localAddress "\"\""
param **.sink_287.app[0].localPort 1100
param **.sink_287.app[0].replyDelay 0s
param **.sink_288.numApps 1
param **.sink_288.app[0].typename "\"TcpGenericServerApp\""
param **.sink_288.app[0].localAddress "\"\""
param **.sink_288.app[0].localPort 1100
param **.sink_288.app[0].replyDelay 0s
param **.sink_289.numApps 1
param **.sink_289.app[0].typename "\"TcpGenericServerApp\""
param **.sink_289.app[0].localAddress "\"\""
param **.sink_289.app[0].localPort 1100
param **.sink_289.app[0].replyDelay 0s
param **.sink_290.numApps 1
param **.sink_290.app[0].typename "\"TcpGenericServerApp\""
param **.sink_290.app[0].localAddress "\"\""
param **.sink_290.app[0].localPort 1100
param **.sink_290.app[0].replyDelay 0s
param **.sink_291.numApps 1
param **.sink_291.app[0].typename "\"TcpGenericServerApp\""
param **.sink_291.app[0].localAddress "\"\""
param **.sink_291.app[0].localPort 1100
param **.sink_291.app[0].replyDelay 0s
param **.sink_292.numApps 1
param **.sink_292.app[0].typename "\"TcpGenericServerApp\""
param **.sink_292.app[0].localAddress "\"\""
param **.sink_292.app[0].localPort 1100
param **.sink_292.app[0].replyDelay 0s
param **.sink_293.numApps 1
param **.sink_293.app[0].typename "\"TcpGenericServerApp\""
param **.sink_293.app[0].localAddress "\"\""
param **.sink_293.app[0].localPort 1100
param **.sink_293.app[0].replyDelay 0s
param **.sink_294.numApps 1
param **.sink_294.app[0].typename "\"TcpGenericServerApp\""
param **.sink_294.app[0].localAddress "\"\""
param **.sink_294.app[0].localPort 1100
param **.sink_294.app[0].replyDelay 0s
param **.sink_295.numApps 1
param **.sink_295.app[0].typename "\"TcpGenericServerApp\""
param **.sink_295.app[0].localAddress "\"\""
param **.sink_295.app[0].localPort 1100
param **.sink_295.app[0].replyDelay 0s
param **.sink_296.numApps 1
param **.sink_296.app[0].typename "\"TcpGenericServerApp\""
param **.sink_296.app[0].localAddress "\"\""
param **.sink_296.app[0].localPort 1100
param **.sink_296.app[0].replyDelay 0s
param **.sink_297.numApps 1
param **.sink_297.app[0].typename "\"TcpGenericServerApp\""
param **.sink_297.app[0].localAddress "\"\""
param **.sink_297.app[0].localPort 1100
param **.sink_297.app[0].replyDelay 0s
param **.sink_298.numApps 1
param **.sink_298.app[0].typename "\"TcpGenericServerApp\""
param **.sink_298.app[0].localAddress "\"\""
param **.sink_298.app[0].localPort 1100
param **.sink_298.app[0].replyDelay 0s
param **.sink_299.numApps 1
param **.sink_299.app[0].typename "\"TcpGenericServerApp\""
param **.sink_299.app[0].localAddress "\"\""
param **.sink_299.app[0].localPort 1100
param **.sink_299.app[0].replyDelay 0s
param **.sink_300.numApps 1
param **.sink_300.app[0].typename "\"TcpGenericServerApp\""
param **.sink_300.app[0].localAddress "\"\""
param **.sink_300.app[0].localPort 1100
param **.sink_300.app[0].replyDelay 0s
param **.sink_301.numApps 1
param **.sink_301.app[0].typename "\"TcpGenericServerApp\""
param **.sink_301.app[0].localAddress "\"\""
param **.sink_301.app[0].localPort 1100
param **.sink_301.app[0].replyDelay 0s
param **.sink_302.numApps 1
param **.sink_302.app[0].typename "\"TcpGenericServerApp\""
param **.sink_302.app[0].localAddress "\"\""
param **.sink_302.app[0].localPort 1100
param **.sink_302.app[0].replyDelay 0s
param **.sink_303.numApps 1
param **.sink_303.app[0].typename "\"TcpGenericServerApp\""
param **.sink_303.app[0].localAddress "\"\""
param **.sink_303.app[0].localPort 1100
param **.sink_303.app[0].replyDelay 0s
param **.sink_304.numApps 1
param **.sink_304.app[0].typename "\"TcpGenericServerApp\""
param **.sink_304.app[0].localAddress "\"\""
param **.sink_304.app[0].localPort 1100
param **.sink_304.app[0].replyDelay 0s
param **.sink_305.numApps 1
param **.sink_305.app[0].typename "\"TcpGenericServerApp\""
param **.sink_305.app[0].localAddress "\"\""
param **.sink_305.app[0].localPort 1100
param **.sink_305.app[0].replyDelay 0s
param **.sink_306.numApps 1
param **.sink_306.app[0].typename "\"TcpGenericServerApp\""
param **.sink_306.app[0].localAddress "\"\""
param **.sink_306.app[0].localPort 1100
param **.sink_306.app[0].replyDelay 0s
param **.sink_307.numApps 1
param **.sink_307.app[0].typename "\"TcpGenericServerApp\""
param **.sink_307.app[0].localAddress "\"\""
param **.sink_307.app[0].localPort 1100
param **.sink_307.app[0].replyDelay 0s
param **.sink_308.numApps 1
param **.sink_308.app[0].typename "\"TcpGenericServerApp\""
param **.sink_308.app[0].localAddress "\"\""
param **.sink_308.app[0].localPort 1100
param **.sink_308.app[0].replyDelay 0s
param **.sink_309.numApps 1
param **.sink_309.app[0].typename "\"TcpGenericServerApp\""
param **.sink_309.app[0].localAddress "\"\""
param **.sink_309.app[0].localPort 1100
param **.sink_309.app[0].replyDelay 0s
param **.sink_310.numApps 1
param **.sink_310.app[0].typename "\"TcpGenericServerApp\""
param **.sink_310.app[0].localAddress "\"\""
param **.sink_310.app[0].localPort 1100
param **.sink_310.app[0].replyDelay 0s
param **.sink_311.numApps 1
param **.sink_311.app[0].typename "\"TcpGenericServerApp\""
param **.sink_311.app[0].localAddress "\"\""
param **.sink_311.app[0].localPort 1100
param **.sink_311.app[0].replyDelay 0s
param **.sink_312.numApps 1
param **.sink_312.app[0].typename "\"TcpGenericServerApp\""
param **.sink_312.app[0].localAddress "\"\""
param **.sink_312.app[0].localPort 1100
param **.sink_312.app[0].replyDelay 0s
param **.sink_313.numApps 1
param **.sink_313.app[0].typename "\"TcpGenericServerApp\""
param **.sink_313.app[0].localAddress "\"\""
param **.sink_313.app[0].localPort 1100
param **.sink_313.app[0].replyDelay 0s
param **.sink_314.numApps 1
param **.sink_314.app[0].typename "\"TcpGenericServerApp\""
param **.sink_314.app[0].localAddress "\"\""
param **.sink_314.app[0].localPort 1100
param **.sink_314.app[0].replyDelay 0s
param **.source_000.numApps 1
param **.source_000.app[0].typename "\"TcpBasicClientApp\""
param **.source_000.app[0].localAddress "\"\""
param **.source_000.app[0].connectAddress "\"sink_000\""
param **.source_000.app[0].connectPort 1100
param **.source_000.app[0].startTime 0s
param **.source_000.app[0].idleInterval 1000s
param **.source_000.app[0].requestLength 1300B
param **.source_000.app[0].replyLength 20B
param **.source_000.app[0].thinkTime 0s
param **.source_000.app[0].numRequestsPerSession 9
param **.source_001.numApps 1
param **.source_001.app[0].typename "\"TcpBasicClientApp\""
param **.source_001.app[0].localAddress "\"\""
param **.source_001.app[0].connectAddress "\"sink_001\""
param **.source_001.app[0].connectPort 1100
param **.source_001.app[0].startTime 0s
param **.source_001.app[0].idleInterval 1000s
param **.source_001.app[0].requestLength 1300B
param **.source_001.app[0].replyLength 20B
param **.source_001.app[0].thinkTime 0s
param **.source_001.app[0].numRequestsPerSession 25
param **.source_002.numApps 1
param **.source_002.app[0].typename "\"TcpBasicClientApp\""
param **.source_002.app[0].localAddress "\"\""
param **.source_002.app[0].connectAddress "\"sink_002\""
param **.source_002.app[0].connectPort 1100
param **.source_002.app[0].startTime 0s
param **.source_002.app[0].idleInterval 1000s
param **.source_002.app[0].requestLength 1300B
param **.source_002.app[0].replyLength 20B
param **.source_002.app[0].thinkTime 0s
param **.source_002.app[0].numRequestsPerSession 1
param **.source_003.numApps 1
param **.source_003.app[0].typename "\"TcpBasicClientApp\""
param **.source_003.app[0].localAddress "\"\""
param **.source_003.app[0].connectAddress "\"sink_003\""
param **.source_003.app[0].connectPort 1100
param **.source_003.app[0].startTime 0s
param **.source_003.app[0].idleInterval 1000s
param **.source_003.app[0].requestLength 1300B
param **.source_003.app[0].replyLength 20B
param **.source_003.app[0].thinkTime 0s
param **.source_003.app[0].numRequestsPerSession 38
param **.source_004.numApps 1
param **.source_004.app[0].typename "\"TcpBasicClientApp\""
param **.source_004.app[0].localAddress "\"\""
param **.source_004.app[0].connectAddress "\"sink_004\""
param **.source_004.app[0].connectPort 1100
param **.source_004.app[0].startTime 0s
param **.source_004.app[0].idleInterval 1000s
param **.source_004.app[0].requestLength 1300B
param **.source_004.app[0].replyLength 20B
param **.source_004.app[0].thinkTime 0s
param **.source_004.app[0].numRequestsPerSession 3
param **.source_005.numApps 1
param **.source_005.app[0].typename "\"TcpBasicClientApp\""
param **.source_005.app[0].localAddress "\"\""
param **.source_005.app[0].connectAddress "\"sink_005\""
param **.source_005.app[0].connectPort 1100
param **.source_005.app[0].startTime 0s
param **.source_005.app[0].idleInterval 1000s
param **.source_005.app[0].requestLength 1300B
param **.source_005.app[0].replyLength 20B
param **.source_005.app[0].thinkTime 0s
param **.source_005.app[0].numRequestsPerSession 2
param **.source_006.numApps 1
param **.source_006.app[0].typename "\"TcpBasicClientApp\""
param **.source_006.app[0].localAddress "\"\""
param **.source_006.app[0].connectAddress "\"sink_006\""
param **.source_006.app[0].connectPort 1100
param **.source_006.app[0].startTime 0s
param **.source_006.app[0].idleInterval 1000s
param **.source_006.app[0].requestLength 1300B
param **.source_006.app[0].replyLength 20B
param **.source_006.app[0].thinkTime 0s
param **.source_006.app[0].numRequestsPerSession 31
param **.source_007.numApps 1
param **.source_007.app[0].typename "\"TcpBasicClientApp\""
param **.source_007.app[0].localAddress "\"\""
param **.source_007.app[0].connectAddress "\"sink_007\""
param **.source_007.app[0].connectPort 1100
param **.source_007.app[0].startTime 0s
param **.source_007.app[0].idleInterval 1000s
param **.source_007.app[0].requestLength 1300B
param **.source_007.app[0].replyLength 20B
param **.source_007.app[0].thinkTime 0s
param **.source_007.app[0].numRequestsPerSession 17
param **.source_008.numApps 1
param **.source_008.app[0].typename "\"TcpBasicClientApp\""
param **.source_008.app[0].localAddress "\"\""
param **.source_008.app[0].connectAddress "\"sink_008\""
param **.source_008.app[0].connectPort 1100
param **.source_008.app[0].startTime 0s
param **.source_008.app[0].idleInterval 1000s
param **.source_008.app[0].requestLength 1300B
param **.source_008.app[0].replyLength 20B
param **.source_008.app[0].thinkTime 0s
param **.source_008.app[0].numRequestsPerSession 32
param **.source_009.numApps 1
param **.source_009.app[0].typename "\"TcpBasicClientApp\""
param **.source_009.app[0].localAddress "\"\""
param **.source_009.app[0].connectAddress "\"sink_009\""
param **.source_009.app[0].connectPort 1100
param **.source_009.app[0].startTime 0s
param **.source_009.app[0].idleInterval 1000s
param **.source_009.app[0].requestLength 1300B
param **.source_009.app[0].replyLength 20B
param **.source_009.app[0].thinkTime 0s
param **.source_009.app[0].numRequestsPerSession 7
param **.source_010.numApps 1
param **.source_010.app[0].typename "\"TcpBasicClientApp\""
param **.source_010.app[0].localAddress "\"\""
param **.source_010.app[0].connectAddress "\"sink_010\""
param **.source_010.app[0].connectPort 1100
param **.source_010.app[0].startTime 0s
param **.source_010.app[0].idleInterval 1000s
param **.source_010.app[0].requestLength 1300B
param **.source_010.app[0].replyLength 20B
param **.source_010.app[0].thinkTime 0s
param **.source_010.app[0].numRequestsPerSession 21
param **.source_011.numApps 1
param **.source_011.app[0].typename "\"TcpBasicClientApp\""
param **.source_011.app[0].localAddress "\"\""
param **.source_011.app[0].connectAddress "\"sink_011\""
param **.source_011.app[0].connectPort 1100
param **.source_011.app[0].startTime 0s
param **.source_011.app[0].idleInterval 1000s
param **.source_011.app[0].requestLength 1300B
param **.source_011.app[0].replyLength 20B
param **.source_011.app[0].thinkTime 0s
param **.source_011.app[0].numRequestsPerSession 17
param **.source_012.numApps 1
param **.source_012.app[0].typename "\"TcpBasicClientApp\""
param **.source_012.app[0].localAddress "\"\""
param **.source_012.app[0].connectAddress "\"sink_012\""
param **.source_012.app[0].connectPort 1100
param **.source_012.app[0].startTime 0s
param **.source_012.app[0].idleInterval 1000s
param **.source_012.app[0].requestLength 1300B
param **.source_012.app[0].replyLength 20B
param **.source_012.app[0].thinkTime 0s
param **.source_012.app[0].numRequestsPerSession 18
param **.source_013.numApps 1
param **.source_013.app[0].typename "\"TcpBasicClientApp\""
param **.source_013.app[0].localAddress "\"\""
param **.source_013.app[0].connectAddress "\"sink_013\""
param **.source_013.app[0].connectPort 1100
param **.source_013.app[0].startTime 0s
param **.source_013.app[0].idleInterval 1000s
param **.source_013.app[0].requestLength 1300B
param **.source_013.app[0].replyLength 20B
param **.source_013.app[0].thinkTime 0s
param **.source_013.app[0].numRequestsPerSession 2
param **.source_014.numApps 1
param **.source_014.app[0].typename "\"TcpBasicClientApp\""
param **.source_014.app[0].localAddress "\"\""
param **.source_014.app[0].connectAddress "\"sink_014\""
param **.source_014.app[0].connectPort 1100
param **.source_014.app[0].startTime 0s
param **.source_014.app[0].idleInterval 1000s
param **.source_014.app[0].requestLength 1300B
param **.source_014.app[0].replyLength 20B
param **.source_014.app[0].thinkTime 0s
param **.source_014.app[0].numRequestsPerSession 272
param **.source_015.numApps 1
param **.source_015.app[0].typename "\"TcpBasicClientApp\""
param **.source_015.app[0].localAddress "\"\""
param **.source_015.app[0].connectAddress "\"sink_015\""
param **.source_015.app[0].connectPort 1100
param **.source_015.app[0].startTime 0s
param **.source_015.app[0].idleInterval 1000s
param **.source_015.app[0].requestLength 1300B
param **.source_015.app[0].replyLength 20B
param **.source_015.app[0].thinkTime 0s
param **.source_015.app[0].numRequestsPerSession 41
param **.source_016.numApps 1
param **.source_016.app[0].typename "\"TcpBasicClientApp\""
param **.source_016.app[0].localAddress "\"\""
param **.source_016.app[0].connectAddress "\"sink_016\""
param **.source_016.app[0].connectPort 1100
param **.source_016.app[0].startTime 0s
param **.source_016.app[0].idleInterval 1000s
param **.source_016.app[0].requestLength 1300B
param **.source_016.app[0].replyLength 20B
param **.source_016.app[0].thinkTime 0s
param **.source_016.app[0].numRequestsPerSession 9
param **.source_017.numApps 1
param **.source_017.app[0].typename "\"TcpBasicClientApp\""
param **.source_017.app[0].localAddress "\"\""
param **.source_017.app[0].connectAddress "\"sink_017\""
param **.source_017.app[0].connectPort 1100
param **.source_017.app[0].startTime 0s
param **.source_017.app[0].idleInterval 1000s
param **.source_017.app[0].requestLength 1300B
param **.source_017.app[0].replyLength 20B
param **.source_017.app[0].thinkTime 0s
param **.source_017.app[0].numRequestsPerSession 1
param **.source_018.numApps 1
param **.source_018.app[0].typename "\"TcpBasicClientApp\""
param **.source_018.app[0].localAddress "\"\""
param **.source_018.app[0].connectAddress "\"sink_018\""
param **.source_018.app[0].connectPort 1100
param **.source_018.app[0].startTime 0s
param **.source_018.app[0].idleInterval 1000s
param **.source_018.app[0].requestLength 1300B
param **.source_018.app[0].replyLength 20B
param **.source_018.app[0].thinkTime 0s
param **.source_018.app[0].numRequestsPerSession 9
param **.source_019.numApps 1
param **.source_019.app[0].typename "\"TcpBasicClientApp\""
param **.source_019.app[0].localAddress "\"\""
param **.source_019.app[0].connectAddress "\"sink_019\""
param **.source_019.app[0].connectPort 1100
param **.source_019.app[0].startTime 0s
param **.source_019.app[0].idleInterval 1000s
param **.source_019.app[0].requestLength 1300B
param **.source_019.app[0].replyLength 20B
param **.source_019.app[0].thinkTime 0s
param **.source_019.app[0].numRequestsPerSession 12
param **.source_020.numApps 1
param **.source_020.app[0].typename "\"TcpBasicClientApp\""
param **.source_020.app[0].localAddress "\"\""
param **.source_020.app[0].connectAddress "\"sink_020\""
param **.source_020.app[0].connectPort 1100
param **.source_020.app[0].startTime 0s
param **.source_020.app[0].idleInterval 1000s
param **.source_020.app[0].requestLength 1300B
param **.source_020.app[0].replyLength 20B
param **.source_020.app[0].thinkTime 0s
param **.source_020.app[0].numRequestsPerSession 211
param **.source_021.numApps 1
param **.source_021.app[0].typename "\"TcpBasicClientApp\""
param **.source_021.app[0].localAddress "\"\""
param **.source_021.app[0].connectAddress "\"sink_021\""
param **.source_021.app[0].connectPort 1100
param **.source_021.app[0].startTime 0s
param **.source_021.app[0].idleInterval 1000s
param **.source_021.app[0].requestLength 1300B
param **.source_021.app[0].replyLength 20B
param **.source_021.app[0].thinkTime 0s
param **.source_021.app[0].numRequestsPerSession 20
param **.source_022.numApps 1
param **.source_022.app[0].typename "\"TcpBasicClientApp\""
param **.source_022.app[0].localAddress "\"\""
param **.source_022.app[0].connectAddress "\"sink_022\""
param **.source_022.app[0].connectPort 1100
param **.source_022.app[0].startTime 0s
param **.source_022.app[0].idleInterval 1000s
param **.source_022.app[0].requestLength 1300B
param **.source_022.app[0].replyLength 20B
param **.source_022.app[0].thinkTime 0s
param **.source_022.app[0].numRequestsPerSession 379
param **.source_023.numApps 1
param **.source_023.app[0].typename "\"TcpBasicClientApp\""
param **.source_023.app[0].localAddress "\"\""
param **.source_023.app[0].connectAddress "\"sink_023\""
param **.source_023.app[0].connectPort 1100
param **.source_023.app[0].startTime 0s
param **.source_023.app[0].idleInterval 1000s
param **.source_023.app[0].requestLength 1300B
param **.source_023.app[0].replyLength 20B
param **.source_023.app[0].thinkTime 0s
param **.source_023.app[0].numRequestsPerSession 333
param **.source_024.numApps 1
param **.source_024.app[0].typename "\"TcpBasicClientApp\""
param **.source_024.app[0].localAddress "\"\""
param **.source_024.app[0].connectAddress "\"sink_024\""
param **.source_024.app[0].connectPort 1100
param **.source_024.app[0].startTime 0s
param **.source_024.app[0].idleInterval 1000s
param **.source_024.app[0].requestLength 1300B
param **.source_024.app[0].replyLength 20B
param **.source_024.app[0].thinkTime 0s
[...]
bin	0.0034	0
bin	0.0035	0
bin	0.0036	0
bin	0.0037	0
bin	0.0038	0
bin	0.0039	0
bin	0.004	0
bin	0.0041	0
bin	0.0042	0
bin	0.0043	0
bin	0.0044	0
bin	0.0045	0
bin	0.0046	0
bin	0.0047	160
bin	0.0048	0
bin	0.0049	0
bin	0.005	0
bin	0.0051	0
bin	0.0052	0
bin	0.0053	0
bin	0.0054	0
bin	0.0055	0
bin	0.0056	0
bin	0.0057	0
bin	0.0058	0
scalar FatTree_6__fvj_dc_big_traffic_seed4.source_307.app[0] numActiveSessions:max 1
attr interpolationmode sample-hold
attr source sum(connect)
attr title "number of active sessions, max"
scalar FatTree_6__fvj_dc_big_traffic_seed4.source_307.app[0] numActiveSessions:timeavg 9.6946e-05
attr interpolationmode sample-hold
attr source sum(connect)
attr title "number of active sessions, timeavg"
statistic FatTree_6__fvj_dc_big_traffic_seed4.source_308.app[0] endToEndDelay:histogram
field count 16
field mean 0.0017620625
field stddev 0.00091740659606305
field min 0.001049
field max 0.004081
field sum 0.028193
field sqrsum 6.2302351e-05
attr interpolationmode none
attr source dataAge(packetReceived)
attr title "end-to-end delay, histogram"
attr unit s
bin	-inf	0
bin	0.0002	0
bin	0.0003	0
bin	0.0004	0
bin	0.0005	0
bin	0.0006	0
bin	0.0007	0
bin	0.0008	0
bin	0.0009	0
bin	0.001	6
bin	0.0011	2
bin	0.0012	1
bin	0.0013	0
bin	0.0014	0
bin	0.0015	0
bin	0.0016	0
bin	0.0017	0
bin	0.0018	0
bin	0.0019	1
bin	0.002	2
bin	0.0021	0
bin	0.0022	0
bin	0.0023	0
bin	0.0024	0
bin	0.0025	1
bin	0.0026	1
bin	0.0027	0
bin	0.0028	0
bin	0.0029	1
bin	0.003	0
bin	0.0031	0
bin	0.0032	0
bin	0.0033	0
bin	0.0034	0
bin	0.0035	0
bin	0.0036	0
bin	0.0037	0
bin	0.0038	0
bin	0.0039	0
bin	0.004	1
bin	0.0041	0
bin	0.0042	0
bin	0.0043	0
bin	0.0044	0
bin	0.0045	0
bin	0.0046	0
bin	0.0047	0
bin	0.0048	0
bin	0.0049	0
statistic FatTree_6__fvj_dc_big_traffic_seed4.source_308.app[0] endToEndDelay:weightedHistogram
field count 16
field mean 0.0017620625
field stddev 0.00091740659606305
field min 0.001049
field max 0.004081
field weights 2560
field weightedSum 4.51088
field sqrSumWeights 409600
field weightedSqrSum 0.00996837616
attr interpolationmode none
attr source dataAge(packetReceived)
attr title "end-to-end delay, weightedHistogram"
attr unit s
bin	-inf	0
bin	0.0002	0
bin	0.0003	0
bin	0.0004	0
bin	0.0005	0
bin	0.0006	0
bin	0.0007	0
bin	0.0008	0
bin	0.0009	0
bin	0.001	960
bin	0.0011	320
bin	0.0012	160
bin	0.0013	0
bin	0.0014	0
bin	0.0015	0
bin	0.0016	0
bin	0.0017	0
bin	0.0018	0
bin	0.0019	160
bin	0.002	320
bin	0.0021	0
bin	0.0022	0
bin	0.0023	0
bin	0.0024	0
bin	0.0025	160
bin	0.0026	160
bin	0.0027	0
bin	0.0028	0
bin	0.0029	160
bin	0.003	0
bin	0.0031	0
bin	0.0032	0
bin	0.0033	0
bin	0.0034	0
bin	0.0035	0
bin	0.0036	0
bin	0.0037	0
bin	0.0038	0
bin	0.0039	0
bin	0.004	160
bin	0.0041	0
bin	0.0042	0
bin	0.0043	0
bin	0.0044	0
bin	0.0045	0
bin	0.0046	0
bin	0.0047	0
bin	0.0048	0
bin	0.0049	0
scalar FatTree_6__fvj_dc_big_traffic_seed4.source_308.app[0] numActiveSessions:max 1
attr interpolationmode sample-hold
attr source sum(connect)
attr title "number of active sessions, max"
scalar FatTree_6__fvj_dc_big_traffic_seed4.source_308.app[0] numActiveSessions:timeavg 0.000311786
attr interpolationmode sample-hold
attr source sum(connect)
attr title "number of active sessions, timeavg"
statistic FatTree_6__fvj_dc_big_traffic_seed4.source_309.app[0] endToEndDelay:histogram
field count 50
field mean 0.0021351
field stddev 0.00099293348627351
field min 0.001049
field max 0.006097
field sum 0.106755
field sqrsum 0.000276242529
attr interpolationmode none
attr source dataAge(packetReceived)
attr title "end-to-end delay, histogram"
attr unit s
bin	-inf	0
bin	0	0
bin	0.0001	0
bin	0.0002	0
bin	0.0003	0
bin	0.0004	0
bin	0.0005	0
bin	0.0006	0
bin	0.0007	0
bin	0.0008	0
bin	0.0009	0
bin	0.001	7
bin	0.0011	2
bin	0.0012	2
bin	0.0013	1
bin	0.0014	2
bin	0.0015	5
bin	0.0016	2
bin	0.0017	1
bin	0.0018	2
bin	0.0019	0
bin	0.002	3
bin	0.0021	0
bin	0.0022	2
bin	0.0023	4
bin	0.0024	2
bin	0.0025	5
bin	0.0026	1
bin	0.0027	1
bin	0.0028	1
bin	0.0029	0
bin	0.003	2
bin	0.0031	0
bin	0.0032	0
bin	0.0033	1
bin	0.0034	0
bin	0.0035	1
bin	0.0036	0
bin	0.0037	0
bin	0.0038	0
bin	0.0039	0
bin	0.004	0
bin	0.0041	1
bin	0.0042	0
bin	0.0043	1
bin	0.0044	0
bin	0.0045	0
bin	0.0046	0
bin	0.0047	0
bin	0.0048	0
bin	0.0049	0
bin	0.005	0
bin	0.0051	0
bin	0.0052	0
bin	0.0053	0
bin	0.0054	0
bin	0.0055	0
bin	0.0056	0
bin	0.0057	0
bin	0.0058	0
bin	0.0059	0
bin	0.006	1
bin	0.0061	0
bin	0.0062	0
bin	0.0063	0
bin	0.0064	0
bin	0.0065	0
bin	0.0066	0
bin	0.0067	0
bin	0.0068	0
bin	0.0069	0
bin	0.007	0
bin	0.0071	0
bin	0.0072	0
bin	0.0073	0
bin	0.0074	0
statistic FatTree_6__fvj_dc_big_traffic_seed4.source_309.app[0] endToEndDelay:weightedHistogram
field count 50
field mean 0.0021351
field stddev 0.00099293348627351
field min 0.001049
field max 0.006097
field weights 8000
field weightedSum 17.0808
field sqrSumWeights 1280000
field weightedSqrSum 0.04419880464
attr interpolationmode none
attr source dataAge(packetReceived)
attr title "end-to-end delay, weightedHistogram"
attr unit s
bin	-inf	0
bin	0	0
bin	0.0001	0
bin	0.0002	0
bin	0.0003	0
bin	0.0004	0
bin	0.0005	0
bin	0.0006	0
bin	0.0007	0
bin	0.0008	0
bin	0.0009	0
bin	0.001	1120
bin	0.0011	320
bin	0.0012	320
bin	0.0013	160
bin	0.0014	320
bin	0.0015	800
bin	0.0016	320
bin	0.0017	160
bin	0.0018	320
bin	0.0019	0
bin	0.002	480
bin	0.0021	0
bin	0.0022	320
bin	0.0023	640
bin	0.0024	320
bin	0.0025	800
bin	0.0026	160
bin	0.0027	160
bin	0.0028	160
bin	0.0029	0
bin	0.003	320
bin	0.0031	0
bin	0.0032	0
bin	0.0033	160
bin	0.0034	0
bin	0.0035	160
bin	0.0036	0
bin	0.0037	0
bin	0.0038	0
bin	0.0039	0
bin	0.004	0
bin	0.0041	160
bin	0.0042	0
bin	0.0043	160
bin	0.0044	0
bin	0.0045	0
bin	0.0046	0
bin	0.0047	0
bin	0.0048	0
bin	0.0049	0
bin	0.005	0
bin	0.0051	0
bin	0.0052	0
bin	0.0053	0
bin	0.0054	0
bin	0.0055	0
bin	0.0056	0
bin	0.0057	0
bin	0.0058	0
bin	0.0059	0
bin	0.006	160
bin	0.0061	0
bin	0.0062	0
bin	0.0063	0
bin	0.0064	0
bin	0.0065	0
bin	0.0066	0
bin	0.0067	0
bin	0.0068	0
bin	0.0069	0
bin	0.007	0
bin	0.0071	0
bin	0.0072	0
bin	0.0073	0
bin	0.0074	0
scalar FatTree_6__fvj_dc_big_traffic_seed4.source_309.app[0] numActiveSessions:max 1
attr interpolationmode sample-hold
attr source sum(connect)
attr title "number of active sessions, max"
scalar FatTree_6__fvj_dc_big_traffic_seed4.source_309.app[0] numActiveSessions:timeavg 0.000723386
attr interpolationmode sample-hold
attr source sum(connect)
attr title "number of active sessions, timeavg"
statistic FatTree_6__fvj_dc_big_traffic_seed4.source_310.app[0] endToEndDelay:histogram
field count 1
field mean 0.001049
field stddev -nan
field min 0.001049
field max 0.001049
field sum 0.001049
field sqrsum 1.100401e-06
attr interpolationmode none
attr source dataAge(packetReceived)
attr title "end-to-end delay, histogram"
attr unit s
bin	-inf	0
bin	0	1
bin	0.01	0
bin	0.02	0
bin	0.03	0
bin	0.04	0
bin	0.05	0
bin	0.06	0
bin	0.07	0
bin	0.08	0
bin	0.09	0
bin	0.1	0
bin	0.11	0
bin	0.12	0
bin	0.13	0
bin	0.14	0
bin	0.15	0
bin	0.16	0
bin	0.17	0
bin	0.18	0
bin	0.19	0
bin	0.2	0
bin	0.21	0
bin	0.22	0
bin	0.23	0
bin	0.24	0
bin	0.25	0
bin	0.26	0
bin	0.27	0
bin	0.28	0
bin	0.29	0
bin	0.3	0
bin	0.31	0
bin	0.32	0
bin	0.33	0
bin	0.34	0
bin	0.35	0
bin	0.36	0
bin	0.37	0
bin	0.38	0
bin	0.39	0
bin	0.4	0
bin	0.41	0
bin	0.42	0
bin	0.43	0
bin	0.44	0
bin	0.45	0
bin	0.46	0
bin	0.47	0
bin	0.48	0
bin	0.49	0
bin	0.5	0
bin	0.51	0
statistic FatTree_6__fvj_dc_big_traffic_seed4.source_310.app[0] endToEndDelay:weightedHistogram
field count 1
field mean 0.001049
field stddev -nan
field min 0.001049
field max 0.001049
field weights 160
field weightedSum 0.16784
field sqrSumWeights 25600
field weightedSqrSum 0.00017606416
attr interpolationmode none
attr source dataAge(packetReceived)
attr title "end-to-end delay, weightedHistogram"
attr unit s
bin	-inf	0
bin	0	160
bin	0.01	0
bin	0.02	0
bin	0.03	0
bin	0.04	0
bin	0.05	0
bin	0.06	0
bin	0.07	0
bin	0.08	0
bin	0.09	0
bin	0.1	0
bin	0.11	0
bin	0.12	0
bin	0.13	0
bin	0.14	0
bin	0.15	0
bin	0.16	0
bin	0.17	0
bin	0.18	0
bin	0.19	0
bin	0.2	0
bin	0.21	0
bin	0.22	0
bin	0.23	0
bin	0.24	0
bin	0.25	0
bin	0.26	0
bin	0.27	0
bin	0.28	0
bin	0.29	0
bin	0.3	0
bin	0.31	0
bin	0.32	0
bin	0.33	0
bin	0.34	0
bin	0.35	0
bin	0.36	0
bin	0.37	0
bin	0.38	0
bin	0.39	0
bin	0.4	0
bin	0.41	0
bin	0.42	0
bin	0.43	0
bin	0.44	0
bin	0.45	0
bin	0.46	0
bin	0.47	0
bin	0.48	0
bin	0.49	0
bin	0.5	0
bin	0.51	0
scalar FatTree_6__fvj_dc_big_traffic_seed4.source_310.app[0] numActiveSessions:max 1
attr interpolationmode sample-hold
attr source sum(connect)
attr title "number of active sessions, max"
scalar FatTree_6__fvj_dc_big_traffic_seed4.source_310.app[0] numActiveSessions:timeavg 3.951e-05
attr interpolationmode sample-hold
attr source sum(connect)
attr title "number of active sessions, timeavg"
statistic FatTree_6__fvj_dc_big_traffic_seed4.source_311.app[0] endToEndDelay:histogram
field count 151
field mean 0.001304178807947
field stddev 0.00068411323707988
field min 0.001049
field max 0.005184
field sum 0.196931
field sqrsum 0.000327034875
attr interpolationmode none
attr source dataAge(packetReceived)
attr title "end-to-end delay, histogram"
attr unit s
bin	-inf	0
bin	0	0
bin	0.0001	0
bin	0.0002	0
bin	0.0003	0
bin	0.0004	0
bin	0.0005	0
bin	0.0006	0
bin	0.0007	0
bin	0.0008	0
bin	0.0009	0
bin	0.001	120
bin	0.0011	5
bin	0.0012	3
bin	0.0013	0
bin	0.0014	1
bin	0.0015	1
bin	0.0016	1
bin	0.0017	1
bin	0.0018	0
bin	0.0019	0
bin	0.002	1
bin	0.0021	1
bin	0.0022	0
bin	0.0023	5
bin	0.0024	2
bin	0.0025	1
bin	0.0026	2
bin	0.0027	1
bin	0.0028	0
bin	0.0029	1
bin	0.003	0
bin	0.0031	2
bin	0.0032	0
bin	0.0033	0
bin	0.0034	0
bin	0.0035	0
bin	0.0036	0
bin	0.0037	0
bin	0.0038	0
bin	0.0039	0
bin	0.004	1
bin	0.0041	0
bin	0.0042	0
bin	0.0043	0
bin	0.0044	0
bin	0.0045	0
bin	0.0046	0
bin	0.0047	0
bin	0.0048	1
bin	0.0049	0
bin	0.005	0
bin	0.0051	1
bin	0.0052	0
bin	0.0053	0
bin	0.0054	0
bin	0.0055	0
bin	0.0056	0
bin	0.0057	0
bin	0.0058	0
bin	0.0059	0
bin	0.006	0
bin	0.0061	0
bin	0.0062	0
bin	0.0063	0
statistic FatTree_6__fvj_dc_big_traffic_seed4.source_311.app[0] endToEndDelay:weightedHistogram
field count 151
field mean 0.001304178807947
field stddev 0.0006841132370799
field min 0.001049
field max 0.005184
field weights 24160
field weightedSum 31.50896
field sqrSumWeights 3865600
field weightedSqrSum 0.05232558
attr interpolationmode none
attr source dataAge(packetReceived)
attr title "end-to-end delay, weightedHistogram"
attr unit s
bin	-inf	0
bin	0	0
bin	0.0001	0
bin	0.0002	0
bin	0.0003	0
bin	0.0004	0
bin	0.0005	0
bin	0.0006	0
bin	0.0007	0
bin	0.0008	0
bin	0.0009	0
bin	0.001	19200
bin	0.0011	800
bin	0.0012	480
bin	0.0013	0
bin	0.0014	160
bin	0.0015	160
bin	0.0016	160
bin	0.0017	160
bin	0.0018	0
bin	0.0019	0
bin	0.002	160
bin	0.0021	160
bin	0.0022	0
bin	0.0023	800
bin	0.0024	320
bin	0.0025	160
bin	0.0026	320
bin	0.0027	160
bin	0.0028	0
bin	0.0029	160
bin	0.003	0
bin	0.0031	320
bin	0.0032	0
bin	0.0033	0
bin	0.0034	0
bin	0.0035	0
bin	0.0036	0
bin	0.0037	0
bin	0.0038	0
bin	0.0039	0
bin	0.004	160
bin	0.0041	0
bin	0.0042	0
bin	0.0043	0
bin	0.0044	0
bin	0.0045	0
bin	0.0046	0
bin	0.0047	0
bin	0.0048	160
bin	0.0049	0
bin	0.005	0
bin	0.0051	160
bin	0.0052	0
bin	0.0053	0
bin	0.0054	0
bin	0.0055	0
bin	0.0056	0
bin	0.0057	0
bin	0.0058	0
bin	0.0059	0
bin	0.006	0
bin	0.0061	0
bin	0.0062	0
bin	0.0063	0
scalar FatTree_6__fvj_dc_big_traffic_seed4.source_311.app[0] numActiveSessions:max 1
attr interpolationmode sample-hold
attr source sum(connect)
attr title "number of active sessions, max"
scalar FatTree_6__fvj_dc_big_traffic_seed4.source_311.app[0] numActiveSessions:timeavg 0.001711418
attr interpolationmode sample-hold
attr source sum(connect)
attr title "number of active sessions, timeavg"
statistic FatTree_6__fvj_dc_big_traffic_seed4.source_312.app[0] endToEndDelay:histogram
field count 8
field mean 0.002077125
field stddev 0.00098259996765142
field min 0.001049
field max 0.003329
field sum 0.016617
field sqrsum 4.1274105e-05
attr interpolationmode none
attr source dataAge(packetReceived)
attr title "end-to-end delay, histogram"
attr unit s
bin	-inf	0
bin	0.00045	0
bin	0.0005	0
bin	0.00055	0
bin	0.0006	0
bin	0.00065	0
bin	0.0007	0
bin	0.00075	0
bin	0.0008	0
bin	0.00085	0
bin	0.0009	0
bin	0.00095	0
bin	0.001	2
bin	0.00105	0
bin	0.0011	0
bin	0.00115	1
bin	0.0012	0
bin	0.00125	0
bin	0.0013	0
bin	0.00135	0
bin	0.0014	0
bin	0.00145	0
bin	0.0015	0
bin	0.00155	1
bin	0.0016	0
bin	0.00165	0
bin	0.0017	0
bin	0.00175	0
bin	0.0018	0
bin	0.00185	0
bin	0.0019	0
bin	0.00195	0
bin	0.002	0
bin	0.00205	0
bin	0.0021	0
bin	0.00215	0
bin	0.0022	0
bin	0.00225	0
bin	0.0023	0
bin	0.00235	1
bin	0.0024	0
bin	0.00245	0
bin	0.0025	0
bin	0.00255	0
bin	0.0026	0
bin	0.00265	0
bin	0.0027	0
bin	0.00275	0
bin	0.0028	0
bin	0.00285	0
bin	0.0029	0
bin	0.00295	1
bin	0.003	0
bin	0.00305	0
bin	0.0031	1
bin	0.00315	0
bin	0.0032	0
bin	0.00325	0
bin	0.0033	1
bin	0.00335	0
bin	0.0034	0
bin	0.00345	0
bin	0.0035	0
bin	0.00355	0
bin	0.0036	0
bin	0.00365	0
bin	0.0037	0
bin	0.00375	0
bin	0.0038	0
bin	0.00385	0
bin	0.0039	0
statistic FatTree_6__fvj_dc_big_traffic_seed4.source_312.app[0] endToEndDelay:weightedHistogram
field count 8
field mean 0.002077125
field stddev 0.00098259996765142
field min 0.001049
field max 0.003329
field weights 1280
field weightedSum 2.65872
field sqrSumWeights 204800
field weightedSqrSum 0.0066038568
attr interpolationmode none
attr source dataAge(packetReceived)
attr title "end-to-end delay, weightedHistogram"
attr unit s
bin	-inf	0
bin	0.00045	0
bin	0.0005	0
bin	0.00055	0
bin	0.0006	0
bin	0.00065	0
bin	0.0007	0
bin	0.00075	0
bin	0.0008	0
bin	0.00085	0
bin	0.0009	0
bin	0.00095	0
bin	0.001	320
bin	0.00105	0
bin	0.0011	0
bin	0.00115	160
bin	0.0012	0
bin	0.00125	0
bin	0.0013	0
bin	0.00135	0
bin	0.0014	0
bin	0.00145	0
bin	0.0015	0
bin	0.00155	160
bin	0.0016	0
bin	0.00165	0
bin	0.0017	0
bin	0.00175	0
bin	0.0018	0
bin	0.00185	0
bin	0.0019	0
bin	0.00195	0
bin	0.002	0
bin	0.00205	0
bin	0.0021	0
bin	0.00215	0
bin	0.0022	0
bin	0.00225	0
bin	0.0023	0
bin	0.00235	160
bin	0.0024	0
bin	0.00245	0
bin	0.0025	0
bin	0.00255	0
bin	0.0026	0
bin	0.00265	0
bin	0.0027	0
bin	0.00275	0
bin	0.0028	0
bin	0.00285	0
bin	0.0029	0
bin	0.00295	160
bin	0.003	0
bin	0.00305	0
bin	0.0031	160
bin	0.00315	0
bin	0.0032	0
bin	0.00325	0
bin	0.0033	160
bin	0.00335	0
bin	0.0034	0
bin	0.00345	0
bin	0.0035	0
bin	0.00355	0
bin	0.0036	0
bin	0.00365	0
bin	0.0037	0
bin	0.00375	0
bin	0.0038	0
bin	0.00385	0
bin	0.0039	0
scalar FatTree_6__fvj_dc_big_traffic_seed4.source_312.app[0] numActiveSessions:max 1
attr interpolationmode sample-hold
attr source sum(connect)
attr title "number of active sessions, max"
scalar FatTree_6__fvj_dc_big_traffic_seed4.source_312.app[0] numActiveSessions:timeavg 0.000202939
attr interpolationmode sample-hold
attr source sum(connect)
attr title "number of active sessions, timeavg"
statistic FatTree_6__fvj_dc_big_traffic_seed4.source_313.app[0] endToEndDelay:histogram
field count 11
field mean 0.0021661818181818
field stddev 0.001203043624993
field min 0.001049
field max 0.004372
field sum 0.023828
field sqrsum 6.608892e-05
attr interpolationmode none
attr source dataAge(packetReceived)
attr title "end-to-end delay, histogram"
attr unit s
bin	-inf	0
bin	0.0002	0
bin	0.0003	0
bin	0.0004	0
bin	0.0005	0
bin	0.0006	0
bin	0.0007	0
bin	0.0008	0
bin	0.0009	0
bin	0.001	3
bin	0.0011	0
bin	0.0012	0
bin	0.0013	1
bin	0.0014	1
bin	0.0015	0
bin	0.0016	1
bin	0.0017	0
bin	0.0018	1
bin	0.0019	0
bin	0.002	0
bin	0.0021	0
bin	0.0022	0
bin	0.0023	0
bin	0.0024	0
bin	0.0025	0
bin	0.0026	0
bin	0.0027	0
bin	0.0028	0
bin	0.0029	1
bin	0.003	0
bin	0.0031	0
bin	0.0032	1
bin	0.0033	0
bin	0.0034	0
bin	0.0035	0
bin	0.0036	0
bin	0.0037	1
bin	0.0038	0
bin	0.0039	0
bin	0.004	0
bin	0.0041	0
bin	0.0042	0
bin	0.0043	1
bin	0.0044	0
bin	0.0045	0
bin	0.0046	0
bin	0.0047	0
bin	0.0048	0
bin	0.0049	0
bin	0.005	0
bin	0.0051	0
bin	0.0052	0
bin	0.0053	0
statistic FatTree_6__fvj_dc_big_traffic_seed4.source_313.app[0] endToEndDelay:weightedHistogram
field count 11
field mean 0.0021661818181818
field stddev 0.001203043624993
field min 0.001049
field max 0.004372
field weights 1760
field weightedSum 3.81248
field sqrSumWeights 281600
field weightedSqrSum 0.0105742272
attr interpolationmode none
attr source dataAge(packetReceived)
attr title "end-to-end delay, weightedHistogram"
attr unit s
bin	-inf	0
bin	0.0002	0
bin	0.0003	0
bin	0.0004	0
bin	0.0005	0
bin	0.0006	0
bin	0.0007	0
bin	0.0008	0
bin	0.0009	0
bin	0.001	480
bin	0.0011	0
bin	0.0012	0
bin	0.0013	160
bin	0.0014	160
bin	0.0015	0
bin	0.0016	160
bin	0.0017	0
bin	0.0018	160
bin	0.0019	0
bin	0.002	0
bin	0.0021	0
bin	0.0022	0
bin	0.0023	0
bin	0.0024	0
bin	0.0025	0
bin	0.0026	0
bin	0.0027	0
bin	0.0028	0
bin	0.0029	160
bin	0.003	0
bin	0.0031	0
bin	0.0032	160
bin	0.0033	0
bin	0.0034	0
bin	0.0035	0
bin	0.0036	0
bin	0.0037	160
bin	0.0038	0
bin	0.0039	0
bin	0.004	0
bin	0.0041	0
bin	0.0042	0
bin	0.0043	160
bin	0.0044	0
bin	0.0045	0
bin	0.0046	0
bin	0.0047	0
bin	0.0048	0
bin	0.0049	0
bin	0.005	0
bin	0.0051	0
bin	0.0052	0
bin	0.0053	0
scalar FatTree_6__fvj_dc_big_traffic_seed4.source_313.app[0] numActiveSessions:max 1
attr interpolationmode sample-hold
attr source sum(connect)
attr title "number of active sessions, max"
scalar FatTree_6__fvj_dc_big_traffic_seed4.source_313.app[0] numActiveSessions:timeavg 0.000250349
attr interpolationmode sample-hold
attr source sum(connect)
attr title "number of active sessions, timeavg"
statistic FatTree_6__fvj_dc_big_traffic_seed4.source_314.app[0] endToEndDelay:histogram
field count 127
field mean 0.0014528818897638
field stddev 0.00071033393236073
field min 0.001049
field max 0.004574
field sum 0.184516
field sqrsum 0.000331656316
attr interpolationmode none
attr source dataAge(packetReceived)
attr title "end-to-end delay, histogram"
attr unit s
bin	-inf	0
bin	0.0001	0
bin	0.0002	0
bin	0.0003	0
bin	0.0004	0
bin	0.0005	0
bin	0.0006	0
bin	0.0007	0
bin	0.0008	0
bin	0.0009	0
bin	0.001	41
bin	0.0011	41
bin	0.0012	7
bin	0.0013	5
bin	0.0014	4
bin	0.0015	1
bin	0.0016	3
bin	0.0017	3
bin	0.0018	5
bin	0.0019	0
bin	0.002	2
bin	0.0021	0
bin	0.0022	1
bin	0.0023	1
bin	0.0024	1
bin	0.0025	0
bin	0.0026	1
bin	0.0027	0
bin	0.0028	0
bin	0.0029	2
bin	0.003	2
bin	0.0031	1
bin	0.0032	1
bin	0.0033	1
bin	0.0034	1
bin	0.0035	0
bin	0.0036	0
bin	0.0037	0
bin	0.0038	0
bin	0.0039	1
bin	0.004	0
bin	0.0041	0
bin	0.0042	1
bin	0.0043	0
bin	0.0044	0
bin	0.0045	1
bin	0.0046	0
bin	0.0047	0
bin	0.0048	0
bin	0.0049	0
bin	0.005	0
bin	0.0051	0
bin	0.0052	0
bin	0.0053	0
bin	0.0054	0
bin	0.0055	0
statistic FatTree_6__fvj_dc_big_traffic_seed4.source_314.app[0] endToEndDelay:weightedHistogram
field count 127
field mean 0.0014528818897638
field stddev 0.00071033393236074
field min 0.001049
field max 0.004574
field weights 20320
field weightedSum 29.52256
field sqrSumWeights 3251200
field weightedSqrSum 0.05306501056
attr interpolationmode none
attr source dataAge(packetReceived)
attr title "end-to-end delay, weightedHistogram"
attr unit s
bin	-inf	0
bin	0.0001	0
bin	0.0002	0
bin	0.0003	0
bin	0.0004	0
bin	0.0005	0
bin	0.0006	0
bin	0.0007	0
bin	0.0008	0
bin	0.0009	0
bin	0.001	6560
bin	0.0011	6560
bin	0.0012	1120
bin	0.0013	800
bin	0.0014	640
bin	0.0015	160
bin	0.0016	480
bin	0.0017	480
bin	0.0018	800
bin	0.0019	0
bin	0.002	320
bin	0.0021	0
bin	0.0022	160
bin	0.0023	160
bin	0.0024	160
bin	0.0025	0
bin	0.0026	160
bin	0.0027	0
bin	0.0028	0
bin	0.0029	320
bin	0.003	320
bin	0.0031	160
bin	0.0032	160
bin	0.0033	160
bin	0.0034	160
bin	0.0035	0
bin	0.0036	0
bin	0.0037	0
bin	0.0038	0
bin	0.0039	160
bin	0.004	0
bin	0.0041	0
bin	0.0042	160
bin	0.0043	0
bin	0.0044	0
bin	0.0045	160
bin	0.0046	0
bin	0.0047	0
bin	0.0048	0
bin	0.0049	0
bin	0.005	0
bin	0.0051	0
bin	0.0052	0
bin	0.0053	0
bin	0.0054	0
bin	0.0055	0
scalar FatTree_6__fvj_dc_big_traffic_seed4.source_314.app[0] numActiveSessions:max 1
attr interpolationmode sample-hold
attr source sum(connect)
attr title "number of active sessions, max"
scalar FatTree_6__fvj_dc_big_traffic_seed4.source_314.app[0] numActiveSessions:timeavg 0.001504686
attr interpolationmode sample-hold
attr source sum(connect)
attr title "number of active sessions, timeavg"

