version 2
run General-0-20220427-19:56:52-21835
attr configname General
attr datetime 20220427-19:56:52
attr experiment General
attr inifile FatTree_4_seed2_jitter.ini
attr iterationvars ""
attr iterationvarsf ""
attr measurement ""
attr network FatTree_4_seed2_jitter
attr processid 21835
attr repetition 0
attr replication #0
attr resultdir results
attr runnumber 0
attr seedset 0
param **.ppp[*].ppp.queue.typename "\"DropTailQueue\""
param **.ppp[*].ppp.queue.packetCapacity 100
param *.configurator.config "xmldoc(\"FatTree_4_seed2_jitter.xml\")"
param **.sink_000.numApps 1
param **.sink_000.app[0].typename "\"TcpGenericServerApp\""
param **.sink_000.app[0].localAddress "\"\""
param **.sink_000.app[0].localPort 1100
param **.sink_000.app[0].replyDelay 0s
param **.sink_001.numApps 1
param **.sink_001.app[0].typename "\"TcpGenericServerApp\""
param **.sink_001.app[0].localAddress "\"\""
param **.sink_001.app[0].localPort 1100
param **.sink_001.app[0].replyDelay 0s
param **.sink_002.numApps 1
param **.sink_002.app[0].typename "\"TcpGenericServerApp\""
param **.sink_002.app[0].localAddress "\"\""
param **.sink_002.app[0].localPort 1100
param **.sink_002.app[0].replyDelay 0s
param **.sink_003.numApps 1
param **.sink_003.app[0].typename "\"TcpGenericServerApp\""
param **.sink_003.app[0].localAddress "\"\""
param **.sink_003.app[0].localPort 1100
param **.sink_003.app[0].replyDelay 0s
param **.sink_004.numApps 1
param **.sink_004.app[0].typename "\"TcpGenericServerApp\""
param **.sink_004.app[0].localAddress "\"\""
param **.sink_004.app[0].localPort 1100
param **.sink_004.app[0].replyDelay 0s
param **.sink_005.numApps 1
param **.sink_005.app[0].typename "\"TcpGenericServerApp\""
param **.sink_005.app[0].localAddress "\"\""
param **.sink_005.app[0].localPort 1100
param **.sink_005.app[0].replyDelay 0s
param **.sink_006.numApps 1
param **.sink_006.app[0].typename "\"TcpGenericServerApp\""
param **.sink_006.app[0].localAddress "\"\""
param **.sink_006.app[0].localPort 1100
param **.sink_006.app[0].replyDelay 0s
param **.sink_007.numApps 1
param **.sink_007.app[0].typename "\"TcpGenericServerApp\""
param **.sink_007.app[0].localAddress "\"\""
param **.sink_007.app[0].localPort 1100
param **.sink_007.app[0].replyDelay 0s
param **.sink_008.numApps 1
param **.sink_008.app[0].typename "\"TcpGenericServerApp\""
param **.sink_008.app[0].localAddress "\"\""
param **.sink_008.app[0].localPort 1100
param **.sink_008.app[0].replyDelay 0s
param **.sink_009.numApps 1
param **.sink_009.app[0].typename "\"TcpGenericServerApp\""
param **.sink_009.app[0].localAddress "\"\""
param **.sink_009.app[0].localPort 1100
param **.sink_009.app[0].replyDelay 0s
param **.sink_010.numApps 1
param **.sink_010.app[0].typename "\"TcpGenericServerApp\""
param **.sink_010.app[0].localAddress "\"\""
param **.sink_010.app[0].localPort 1100
param **.sink_010.app[0].replyDelay 0s
param **.sink_011.numApps 1
param **.sink_011.app[0].typename "\"TcpGenericServerApp\""
param **.sink_011.app[0].localAddress "\"\""
param **.sink_011.app[0].localPort 1100
param **.sink_011.app[0].replyDelay 0s
param **.sink_012.numApps 1
param **.sink_012.app[0].typename "\"TcpGenericServerApp\""
param **.sink_012.app[0].localAddress "\"\""
param **.sink_012.app[0].localPort 1100
param **.sink_012.app[0].replyDelay 0s
param **.sink_013.numApps 1
param **.sink_013.app[0].typename "\"TcpGenericServerApp\""
param **.sink_013.app[0].localAddress "\"\""
param **.sink_013.app[0].localPort 1100
param **.sink_013.app[0].replyDelay 0s
param **.sink_014.numApps 1
param **.sink_014.app[0].typename "\"TcpGenericServerApp\""
param **.sink_014.app[0].localAddress "\"\""
param **.sink_014.app[0].localPort 1100
param **.sink_014.app[0].replyDelay 0s
param **.sink_015.numApps 1
param **.sink_015.app[0].typename "\"TcpGenericServerApp\""
param **.sink_015.app[0].localAddress "\"\""
param **.sink_015.app[0].localPort 1100
param **.sink_015.app[0].replyDelay 0s
param **.sink_016.numApps 1
param **.sink_016.app[0].typename "\"TcpGenericServerApp\""
param **.sink_016.app[0].localAddress "\"\""
param **.sink_016.app[0].localPort 1100
param **.sink_016.app[0].replyDelay 0s
param **.sink_017.numApps 1
param **.sink_017.app[0].typename "\"TcpGenericServerApp\""
param **.sink_017.app[0].localAddress "\"\""
param **.sink_017.app[0].localPort 1100
param **.sink_017.app[0].replyDelay 0s
param **.sink_018.numApps 1
param **.sink_018.app[0].typename "\"TcpGenericServerApp\""
param **.sink_018.app[0].localAddress "\"\""
param **.sink_018.app[0].localPort 1100
param **.sink_018.app[0].replyDelay 0s
param **.sink_019.numApps 1
param **.sink_019.app[0].typename "\"TcpGenericServerApp\""
param **.sink_019.app[0].localAddress "\"\""
param **.sink_019.app[0].localPort 1100
param **.sink_019.app[0].replyDelay 0s
param **.sink_020.numApps 1
param **.sink_020.app[0].typename "\"TcpGenericServerApp\""
param **.sink_020.app[0].localAddress "\"\""
param **.sink_020.app[0].localPort 1100
param **.sink_020.app[0].replyDelay 0s
param **.sink_021.numApps 1
param **.sink_021.app[0].typename "\"TcpGenericServerApp\""
param **.sink_021.app[0].localAddress "\"\""
param **.sink_021.app[0].localPort 1100
param **.sink_021.app[0].replyDelay 0s
param **.sink_022.numApps 1
param **.sink_022.app[0].typename "\"TcpGenericServerApp\""
param **.sink_022.app[0].localAddress "\"\""
param **.sink_022.app[0].localPort 1100
param **.sink_022.app[0].replyDelay 0s
param **.sink_023.numApps 1
param **.sink_023.app[0].typename "\"TcpGenericServerApp\""
param **.sink_023.app[0].localAddress "\"\""
param **.sink_023.app[0].localPort 1100
param **.sink_023.app[0].replyDelay 0s
param **.sink_024.numApps 1
param **.sink_024.app[0].typename "\"TcpGenericServerApp\""
param **.sink_024.app[0].localAddress "\"\""
param **.sink_024.app[0].localPort 1100
param **.sink_024.app[0].replyDelay 0s
param **.sink_025.numApps 1
param **.sink_025.app[0].typename "\"TcpGenericServerApp\""
param **.sink_025.app[0].localAddress "\"\""
param **.sink_025.app[0].localPort 1100
param **.sink_025.app[0].replyDelay 0s
param **.sink_026.numApps 1
param **.sink_026.app[0].typename "\"TcpGenericServerApp\""
param **.sink_026.app[0].localAddress "\"\""
param **.sink_026.app[0].localPort 1100
param **.sink_026.app[0].replyDelay 0s
param **.sink_027.numApps 1
param **.sink_027.app[0].typename "\"TcpGenericServerApp\""
param **.sink_027.app[0].localAddress "\"\""
param **.sink_027.app[0].localPort 1100
param **.sink_027.app[0].replyDelay 0s
param **.sink_028.numApps 1
param **.sink_028.app[0].typename "\"TcpGenericServerApp\""
param **.sink_028.app[0].localAddress "\"\""
param **.sink_028.app[0].localPort 1100
param **.sink_028.app[0].replyDelay 0s
param **.sink_029.numApps 1
param **.sink_029.app[0].typename "\"TcpGenericServerApp\""
param **.sink_029.app[0].localAddress "\"\""
param **.sink_029.app[0].localPort 1100
param **.sink_029.app[0].replyDelay 0s
param **.sink_030.numApps 1
param **.sink_030.app[0].typename "\"TcpGenericServerApp\""
param **.sink_030.app[0].localAddress "\"\""
param **.sink_030.app[0].localPort 1100
param **.sink_030.app[0].replyDelay 0s
param **.sink_031.numApps 1
param **.sink_031.app[0].typename "\"TcpGenericServerApp\""
param **.sink_031.app[0].localAddress "\"\""
param **.sink_031.app[0].localPort 1100
param **.sink_031.app[0].replyDelay 0s
param **.sink_032.numApps 1
param **.sink_032.app[0].typename "\"TcpGenericServerApp\""
param **.sink_032.app[0].localAddress "\"\""
param **.sink_032.app[0].localPort 1100
param **.sink_032.app[0].replyDelay 0s
param **.sink_033.numApps 1
param **.sink_033.app[0].typename "\"TcpGenericServerApp\""
param **.sink_033.app[0].localAddress "\"\""
param **.sink_033.app[0].localPort 1100
param **.sink_033.app[0].replyDelay 0s
param **.sink_034.numApps 1
param **.sink_034.app[0].typename "\"TcpGenericServerApp\""
param **.sink_034.app[0].localAddress "\"\""
param **.sink_034.app[0].localPort 1100
param **.sink_034.app[0].replyDelay 0s
param **.sink_035.numApps 1
param **.sink_035.app[0].typename "\"TcpGenericServerApp\""
param **.sink_035.app[0].localAddress "\"\""
param **.sink_035.app[0].localPort 1100
param **.sink_035.app[0].replyDelay 0s
param **.sink_036.numApps 1
param **.sink_036.app[0].typename "\"TcpGenericServerApp\""
param **.sink_036.app[0].localAddress "\"\""
param **.sink_036.app[0].localPort 1100
param **.sink_036.app[0].replyDelay 0s
param **.sink_037.numApps 1
param **.sink_037.app[0].typename "\"TcpGenericServerApp\""
param **.sink_037.app[0].localAddress "\"\""
param **.sink_037.app[0].localPort 1100
param **.sink_037.app[0].replyDelay 0s
param **.sink_038.numApps 1
param **.sink_038.app[0].typename "\"TcpGenericServerApp\""
param **.sink_038.app[0].localAddress "\"\""
param **.sink_038.app[0].localPort 1100
param **.sink_038.app[0].replyDelay 0s
param **.sink_039.numApps 1
param **.sink_039.app[0].typename "\"TcpGenericServerApp\""
param **.sink_039.app[0].localAddress "\"\""
param **.sink_039.app[0].localPort 1100
param **.sink_039.app[0].replyDelay 0s
param **.sink_040.numApps 1
param **.sink_040.app[0].typename "\"TcpGenericServerApp\""
param **.sink_040.app[0].localAddress "\"\""
param **.sink_040.app[0].localPort 1100
param **.sink_040.app[0].replyDelay 0s
param **.sink_041.numApps 1
param **.sink_041.app[0].typename "\"TcpGenericServerApp\""
param **.sink_041.app[0].localAddress "\"\""
param **.sink_041.app[0].localPort 1100
param **.sink_041.app[0].replyDelay 0s
param **.sink_042.numApps 1
param **.sink_042.app[0].typename "\"TcpGenericServerApp\""
param **.sink_042.app[0].localAddress "\"\""
param **.sink_042.app[0].localPort 1100
param **.sink_042.app[0].replyDelay 0s
param **.sink_043.numApps 1
param **.sink_043.app[0].typename "\"TcpGenericServerApp\""
param **.sink_043.app[0].localAddress "\"\""
param **.sink_043.app[0].localPort 1100
param **.sink_043.app[0].replyDelay 0s
param **.sink_044.numApps 1
param **.sink_044.app[0].typename "\"TcpGenericServerApp\""
param **.sink_044.app[0].localAddress "\"\""
param **.sink_044.app[0].localPort 1100
param **.sink_044.app[0].replyDelay 0s
param **.sink_045.numApps 1
param **.sink_045.app[0].typename "\"TcpGenericServerApp\""
param **.sink_045.app[0].localAddress "\"\""
param **.sink_045.app[0].localPort 1100
param **.sink_045.app[0].replyDelay 0s
param **.sink_046.numApps 1
param **.sink_046.app[0].typename "\"TcpGenericServerApp\""
param **.sink_046.app[0].localAddress "\"\""
param **.sink_046.app[0].localPort 1100
param **.sink_046.app[0].replyDelay 0s
param **.sink_047.numApps 1
param **.sink_047.app[0].typename "\"TcpGenericServerApp\""
param **.sink_047.app[0].localAddress "\"\""
param **.sink_047.app[0].localPort 1100
param **.sink_047.app[0].replyDelay 0s
param **.sink_048.numApps 1
param **.sink_048.app[0].typename "\"TcpGenericServerApp\""
param **.sink_048.app[0].localAddress "\"\""
param **.sink_048.app[0].localPort 1100
param **.sink_048.app[0].replyDelay 0s
param **.sink_049.numApps 1
param **.sink_049.app[0].typename "\"TcpGenericServerApp\""
param **.sink_049.app[0].localAddress "\"\""
param **.sink_049.app[0].localPort 1100
param **.sink_049.app[0].replyDelay 0s
param **.sink_050.numApps 1
param **.sink_050.app[0].typename "\"TcpGenericServerApp\""
param **.sink_050.app[0].localAddress "\"\""
param **.sink_050.app[0].localPort 1100
param **.sink_050.app[0].replyDelay 0s
param **.sink_051.numApps 1
param **.sink_051.app[0].typename "\"TcpGenericServerApp\""
param **.sink_051.app[0].localAddress "\"\""
param **.sink_051.app[0].localPort 1100
param **.sink_051.app[0].replyDelay 0s
param **.sink_052.numApps 1
param **.sink_052.app[0].typename "\"TcpGenericServerApp\""
param **.sink_052.app[0].localAddress "\"\""
param **.sink_052.app[0].localPort 1100
param **.sink_052.app[0].replyDelay 0s
param **.sink_053.numApps 1
param **.sink_053.app[0].typename "\"TcpGenericServerApp\""
param **.sink_053.app[0].localAddress "\"\""
param **.sink_053.app[0].localPort 1100
param **.sink_053.app[0].replyDelay 0s
param **.sink_054.numApps 1
param **.sink_054.app[0].typename "\"TcpGenericServerApp\""
param **.sink_054.app[0].localAddress "\"\""
param **.sink_054.app[0].localPort 1100
param **.sink_054.app[0].replyDelay 0s
param **.sink_055.numApps 1
param **.sink_055.app[0].typename "\"TcpGenericServerApp\""
param **.sink_055.app[0].localAddress "\"\""
param **.sink_055.app[0].localPort 1100
param **.sink_055.app[0].replyDelay 0s
param **.sink_056.numApps 1
param **.sink_056.app[0].typename "\"TcpGenericServerApp\""
param **.sink_056.app[0].localAddress "\"\""
param **.sink_056.app[0].localPort 1100
param **.sink_056.app[0].replyDelay 0s
param **.sink_057.numApps 1
param **.sink_057.app[0].typename "\"TcpGenericServerApp\""
param **.sink_057.app[0].localAddress "\"\""
param **.sink_057.app[0].localPort 1100
param **.sink_057.app[0].replyDelay 0s
param **.sink_058.numApps 1
param **.sink_058.app[0].typename "\"TcpGenericServerApp\""
param **.sink_058.app[0].localAddress "\"\""
param **.sink_058.app[0].localPort 1100
param **.sink_058.app[0].replyDelay 0s
param **.sink_059.numApps 1
param **.sink_059.app[0].typename "\"TcpGenericServerApp\""
param **.sink_059.app[0].localAddress "\"\""
param **.sink_059.app[0].localPort 1100
param **.sink_059.app[0].replyDelay 0s
param **.sink_060.numApps 1
param **.sink_060.app[0].typename "\"TcpGenericServerApp\""
param **.sink_060.app[0].localAddress "\"\""
param **.sink_060.app[0].localPort 1100
param **.sink_060.app[0].replyDelay 0s
param **.sink_061.numApps 1
param **.sink_061.app[0].typename "\"TcpGenericServerApp\""
param **.sink_061.app[0].localAddress "\"\""
param **.sink_061.app[0].localPort 1100
param **.sink_061.app[0].replyDelay 0s
param **.sink_062.numApps 1
param **.sink_062.app[0].typename "\"TcpGenericServerApp\""
param **.sink_062.app[0].localAddress "\"\""
param **.sink_062.app[0].localPort 1100
param **.sink_062.app[0].replyDelay 0s
param **.sink_063.numApps 1
param **.sink_063.app[0].typename "\"TcpGenericServerApp\""
param **.sink_063.app[0].localAddress "\"\""
param **.sink_063.app[0].localPort 1100
param **.sink_063.app[0].replyDelay 0s
param **.sink_064.numApps 1
param **.sink_064.app[0].typename "\"TcpGenericServerApp\""
param **.sink_064.app[0].localAddress "\"\""
param **.sink_064.app[0].localPort 1100
param **.sink_064.app[0].replyDelay 0s
param **.sink_065.numApps 1
param **.sink_065.app[0].typename "\"TcpGenericServerApp\""
param **.sink_065.app[0].localAddress "\"\""
param **.sink_065.app[0].localPort 1100
param **.sink_065.app[0].replyDelay 0s
param **.sink_066.numApps 1
param **.sink_066.app[0].typename "\"TcpGenericServerApp\""
param **.sink_066.app[0].localAddress "\"\""
param **.sink_066.app[0].localPort 1100
param **.sink_066.app[0].replyDelay 0s
param **.sink_067.numApps 1
param **.sink_067.app[0].typename "\"TcpGenericServerApp\""
param **.sink_067.app[0].localAddress "\"\""
param **.sink_067.app[0].localPort 1100
param **.sink_067.app[0].replyDelay 0s
param **.sink_068.numApps 1
param **.sink_068.app[0].typename "\"TcpGenericServerApp\""
param **.sink_068.app[0].localAddress "\"\""
param **.sink_068.app[0].localPort 1100
param **.sink_068.app[0].replyDelay 0s
param **.sink_069.numApps 1
param **.sink_069.app[0].typename "\"TcpGenericServerApp\""
param **.sink_069.app[0].localAddress "\"\""
param **.sink_069.app[0].localPort 1100
param **.sink_069.app[0].replyDelay 0s
param **.sink_070.numApps 1
param **.sink_070.app[0].typename "\"TcpGenericServerApp\""
param **.sink_070.app[0].localAddress "\"\""
param **.sink_070.app[0].localPort 1100
param **.sink_070.app[0].replyDelay 0s
param **.sink_071.numApps 1
param **.sink_071.app[0].typename "\"TcpGenericServerApp\""
param **.sink_071.app[0].localAddress "\"\""
param **.sink_071.app[0].localPort 1100
param **.sink_071.app[0].replyDelay 0s
param **.sink_072.numApps 1
param **.sink_072.app[0].typename "\"TcpGenericServerApp\""
param **.sink_072.app[0].localAddress "\"\""
param **.sink_072.app[0].localPort 1100
param **.sink_072.app[0].replyDelay 0s
param **.sink_073.numApps 1
param **.sink_073.app[0].typename "\"TcpGenericServerApp\""
param **.sink_073.app[0].localAddress "\"\""
param **.sink_073.app[0].localPort 1100
param **.sink_073.app[0].replyDelay 0s
param **.sink_074.numApps 1
param **.sink_074.app[0].typename "\"TcpGenericServerApp\""
param **.sink_074.app[0].localAddress "\"\""
param **.sink_074.app[0].localPort 1100
param **.sink_074.app[0].replyDelay 0s
param **.sink_075.numApps 1
param **.sink_075.app[0].typename "\"TcpGenericServerApp\""
param **.sink_075.app[0].localAddress "\"\""
param **.sink_075.app[0].localPort 1100
param **.sink_075.app[0].replyDelay 0s
param **.sink_076.numApps 1
param **.sink_076.app[0].typename "\"TcpGenericServerApp\""
param **.sink_076.app[0].localAddress "\"\""
param **.sink_076.app[0].localPort 1100
param **.sink_076.app[0].replyDelay 0s
param **.sink_077.numApps 1
param **.sink_077.app[0].typename "\"TcpGenericServerApp\""
param **.sink_077.app[0].localAddress "\"\""
param **.sink_077.app[0].localPort 1100
param **.sink_077.app[0].replyDelay 0s
param **.sink_078.numApps 1
param **.sink_078.app[0].typename "\"TcpGenericServerApp\""
param **.sink_078.app[0].localAddress "\"\""
param **.sink_078.app[0].localPort 1100
param **.sink_078.app[0].replyDelay 0s
param **.sink_079.numApps 1
param **.sink_079.app[0].typename "\"TcpGenericServerApp\""
param **.sink_079.app[0].localAddress "\"\""
param **.sink_079.app[0].localPort 1100
param **.sink_079.app[0].replyDelay 0s
param **.source_000.numApps 1
param **.source_000.app[0].typename "\"TcpBasicClientApp\""
param **.source_000.app[0].localAddress "\"\""
param **.source_000.app[0].connectAddress "\"sink_000\""
param **.source_000.app[0].connectPort 1100
param **.source_000.app[0].startTime 0s
param **.source_000.app[0].idleInterval 1000s
param **.source_000.app[0].requestLength 1300B
param **.source_000.app[0].replyLength 20B
param **.source_000.app[0].thinkTime 0s
param **.source_000.app[0].numRequestsPerSession 77
param **.source_001.numApps 1
param **.source_001.app[0].typename "\"TcpBasicClientApp\""
param **.source_001.app[0].localAddress "\"\""
param **.source_001.app[0].connectAddress "\"sink_001\""
param **.source_001.app[0].connectPort 1100
param **.source_001.app[0].startTime 0s
param **.source_001.app[0].idleInterval 1000s
param **.source_001.app[0].requestLength 1300B
param **.source_001.app[0].replyLength 20B
param **.source_001.app[0].thinkTime 0s
param **.source_001.app[0].numRequestsPerSession 77
param **.source_002.numApps 1
param **.source_002.app[0].typename "\"TcpBasicClientApp\""
param **.source_002.app[0].localAddress "\"\""
param **.source_002.app[0].connectAddress "\"sink_002\""
param **.source_002.app[0].connectPort 1100
param **.source_002.app[0].startTime 0s
param **.source_002.app[0].idleInterval 1000s
param **.source_002.app[0].requestLength 1300B
param **.source_002.app[0].replyLength 20B
param **.source_002.app[0].thinkTime 0s
param **.source_002.app[0].numRequestsPerSession 77
param **.source_003.numApps 1
param **.source_003.app[0].typename "\"TcpBasicClientApp\""
param **.source_003.app[0].localAddress "\"\""
param **.source_003.app[0].connectAddress "\"sink_003\""
param **.source_003.app[0].connectPort 1100
param **.source_003.app[0].startTime 0s
param **.source_003.app[0].idleInterval 1000s
param **.source_003.app[0].requestLength 1300B
param **.source_003.app[0].replyLength 20B
param **.source_003.app[0].thinkTime 0s
param **.source_003.app[0].numRequestsPerSession 77
param **.source_004.numApps 1
param **.source_004.app[0].typename "\"TcpBasicClientApp\""
param **.source_004.app[0].localAddress "\"\""
param **.source_004.app[0].connectAddress "\"sink_004\""
param **.source_004.app[0].connectPort 1100
param **.source_004.app[0].startTime 0s
param **.source_004.app[0].idleInterval 1000s
param **.source_004.app[0].requestLength 1300B
param **.source_004.app[0].replyLength 20B
param **.source_004.app[0].thinkTime 0s
param **.source_004.app[0].numRequestsPerSession 77
param **.source_005.numApps 1
param **.source_005.app[0].typename "\"TcpBasicClientApp\""
param **.source_005.app[0].localAddress "\"\""
param **.source_005.app[0].connectAddress "\"sink_005\""
param **.source_005.app[0].connectPort 1100
param **.source_005.app[0].startTime 0s
param **.source_005.app[0].idleInterval 1000s
param **.source_005.app[0].requestLength 1300B
param **.source_005.app[0].replyLength 20B
param **.source_005.app[0].thinkTime 0s
param **.source_005.app[0].numRequestsPerSession 77
param **.source_006.numApps 1
param **.source_006.app[0].typename "\"TcpBasicClientApp\""
param **.source_006.app[0].localAddress "\"\""
param **.source_006.app[0].connectAddress "\"sink_006\""
param **.source_006.app[0].connectPort 1100
param **.source_006.app[0].startTime 0s
param **.source_006.app[0].idleInterval 1000s
param **.source_006.app[0].requestLength 1300B
param **.source_006.app[0].replyLength 20B
param **.source_006.app[0].thinkTime 0s
param **.source_006.app[0].numRequestsPerSession 77
param **.source_007.numApps 1
param **.source_007.app[0].typename "\"TcpBasicClientApp\""
param **.source_007.app[0].localAddress "\"\""
param **.source_007.app[0].connectAddress "\"sink_007\""
param **.source_007.app[0].connectPort 1100
param **.source_007.app[0].startTime 0s
param **.source_007.app[0].idleInterval 1000s
param **.source_007.app[0].requestLength 1300B
param **.source_007.app[0].replyLength 20B
param **.source_007.app[0].thinkTime 0s
param **.source_007.app[0].numRequestsPerSession 77
param **.source_008.numApps 1
param **.source_008.app[0].typename "\"TcpBasicClientApp\""
param **.source_008.app[0].localAddress "\"\""
param **.source_008.app[0].connectAddress "\"sink_008\""
param **.source_008.app[0].connectPort 1100
param **.source_008.app[0].startTime 0s
param **.source_008.app[0].idleInterval 1000s
param **.source_008.app[0].requestLength 1300B
param **.source_008.app[0].replyLength 20B
param **.source_008.app[0].thinkTime 0s
param **.source_008.app[0].numRequestsPerSession 77
param **.source_009.numApps 1
param **.source_009.app[0].typename "\"TcpBasicClientApp\""
param **.source_009.app[0].localAddress "\"\""
param **.source_009.app[0].connectAddress "\"sink_009\""
param **.source_009.app[0].connectPort 1100
param **.source_009.app[0].startTime 0s
param **.source_009.app[0].idleInterval 1000s
param **.source_009.app[0].requestLength 1300B
param **.source_009.app[0].replyLength 20B
param **.source_009.app[0].thinkTime 0s
param **.source_009.app[0].numRequestsPerSession 77
param **.source_010.numApps 1
param **.source_010.app[0].typename "\"TcpBasicClientApp\""
param **.source_010.app[0].localAddress "\"\""
param **.source_010.app[0].connectAddress "\"sink_010\""
param **.source_010.app[0].connectPort 1100
param **.source_010.app[0].startTime 0s
param **.source_010.app[0].idleInterval 1000s
param **.source_010.app[0].requestLength 1300B
param **.source_010.app[0].replyLength 20B
param **.source_010.app[0].thinkTime 0s
param **.source_010.app[0].numRequestsPerSession 77
param **.source_011.numApps 1
param **.source_011.app[0].typename "\"TcpBasicClientApp\""
param **.source_011.app[0].localAddress "\"\""
param **.source_011.app[0].connectAddress "\"sink_011\""
param **.source_011.app[0].connectPort 1100
param **.source_011.app[0].startTime 0s
param **.source_011.app[0].idleInterval 1000s
param **.source_011.app[0].requestLength 1300B
param **.source_011.app[0].replyLength 20B
param **.source_011.app[0].thinkTime 0s
param **.source_011.app[0].numRequestsPerSession 77
param **.source_012.numApps 1
param **.source_012.app[0].typename "\"TcpBasicClientApp\""
param **.source_012.app[0].localAddress "\"\""
param **.source_012.app[0].connectAddress "\"sink_012\""
param **.source_012.app[0].connectPort 1100
param **.source_012.app[0].startTime 0s
param **.source_012.app[0].idleInterval 1000s
param **.source_012.app[0].requestLength 1300B
param **.source_012.app[0].replyLength 20B
param **.source_012.app[0].thinkTime 0s
param **.source_012.app[0].numRequestsPerSession 77
param **.source_013.numApps 1
param **.source_013.app[0].typename "\"TcpBasicClientApp\""
param **.source_013.app[0].localAddress "\"\""
param **.source_013.app[0].connectAddress "\"sink_013\""
param **.source_013.app[0].connectPort 1100
param **.source_013.app[0].startTime 0s
param **.source_013.app[0].idleInterval 1000s
param **.source_013.app[0].requestLength 1300B
param **.source_013.app[0].replyLength 20B
param **.source_013.app[0].thinkTime 0s
param **.source_013.app[0].numRequestsPerSession 77
param **.source_014.numApps 1
param **.source_014.app[0].typename "\"TcpBasicClientApp\""
param **.source_014.app[0].localAddress "\"\""
param **.source_014.app[0].connectAddress "\"sink_014\""
param **.source_014.app[0].connectPort 1100
param **.source_014.app[0].startTime 0s
param **.source_014.app[0].idleInterval 1000s
param **.source_014.app[0].requestLength 1300B
param **.source_014.app[0].replyLength 20B
param **.source_014.app[0].thinkTime 0s
param **.source_014.app[0].numRequestsPerSession 77
param **.source_015.numApps 1
param **.source_015.app[0].typename "\"TcpBasicClientApp\""
param **.source_015.app[0].localAddress "\"\""
param **.source_015.app[0].connectAddress "\"sink_015\""
param **.source_015.app[0].connectPort 1100
param **.source_015.app[0].startTime 0s
param **.source_015.app[0].idleInterval 1000s
param **.source_015.app[0].requestLength 1300B
param **.source_015.app[0].replyLength 20B
param **.source_015.app[0].thinkTime 0s
param **.source_015.app[0].numRequestsPerSession 77
param **.source_016.numApps 1
param **.source_016.app[0].typename "\"TcpBasicClientApp\""
param **.source_016.app[0].localAddress "\"\""
param **.source_016.app[0].connectAddress "\"sink_016\""
param **.source_016.app[0].connectPort 1100
param **.source_016.app[0].startTime 0s
param **.source_016.app[0].idleInterval 1000s
param **.source_016.app[0].requestLength 1300B
param **.source_016.app[0].replyLength 20B
param **.source_016.app[0].thinkTime 0s
param **.source_016.app[0].numRequestsPerSession 77
param **.source_017.numApps 1
param **.source_017.app[0].typename "\"TcpBasicClientApp\""
param **.source_017.app[0].localAddress "\"\""
param **.source_017.app[0].connectAddress "\"sink_017\""
param **.source_017.app[0].connectPort 1100
param **.source_017.app[0].startTime 0s
param **.source_017.app[0].idleInterval 1000s
param **.source_017.app[0].requestLength 1300B
param **.source_017.app[0].replyLength 20B
param **.source_017.app[0].thinkTime 0s
param **.source_017.app[0].numRequestsPerSession 77
param **.source_018.numApps 1
param **.source_018.app[0].typename "\"TcpBasicClientApp\""
param **.source_018.app[0].localAddress "\"\""
param **.source_018.app[0].connectAddress "\"sink_018\""
param **.source_018.app[0].connectPort 1100
param **.source_018.app[0].startTime 0s
param **.source_018.app[0].idleInterval 1000s
param **.source_018.app[0].requestLength 1300B
param **.source_018.app[0].replyLength 20B
param **.source_018.app[0].thinkTime 0s
param **.source_018.app[0].numRequestsPerSession 77
param **.source_019.numApps 1
param **.source_019.app[0].typename "\"TcpBasicClientApp\""
param **.source_019.app[0].localAddress "\"\""
param **.source_019.app[0].connectAddress "\"sink_019\""
param **.source_019.app[0].connectPort 1100
param **.source_019.app[0].startTime 0s
param **.source_019.app[0].idleInterval 1000s
param **.source_019.app[0].requestLength 1300B
param **.source_019.app[0].replyLength 20B
param **.source_019.app[0].thinkTime 0s
param **.source_019.app[0].numRequestsPerSession 77
param **.source_020.numApps 1
param **.source_020.app[0].typename "\"TcpBasicClientApp\""
param **.source_020.app[0].localAddress "\"\""
param **.source_020.app[0].connectAddress "\"sink_020\""
param **.source_020.app[0].connectPort 1100
param **.source_020.app[0].startTime 0s
param **.source_020.app[0].idleInterval 1000s
param **.source_020.app[0].requestLength 1300B
param **.source_020.app[0].replyLength 20B
param **.source_020.app[0].thinkTime 0s
param **.source_020.app[0].numRequestsPerSession 77
param **.source_021.numApps 1
param **.source_021.app[0].typename "\"TcpBasicClientApp\""
param **.source_021.app[0].localAddress "\"\""
param **.source_021.app[0].connectAddress "\"sink_021\""
param **.source_021.app[0].connectPort 1100
param **.source_021.app[0].startTime 0s
param **.source_021.app[0].idleInterval 1000s
param **.source_021.app[0].requestLength 1300B
param **.source_021.app[0].replyLength 20B
param **.source_021.app[0].thinkTime 0s
param **.source_021.app[0].numRequestsPerSession 77
param **.source_022.numApps 1
param **.source_022.app[0].typename "\"TcpBasicClientApp\""
param **.source_022.app[0].localAddress "\"\""
param **.source_022.app[0].connectAddress "\"sink_022\""
param **.source_022.app[0].connectPort 1100
param **.source_022.app[0].startTime 0s
param **.source_022.app[0].idleInterval 1000s
param **.source_022.app[0].requestLength 1300B
param **.source_022.app[0].replyLength 20B
param **.source_022.app[0].thinkTime 0s
param **.source_022.app[0].numRequestsPerSession 77
param **.source_023.numApps 1
param **.source_023.app[0].typename "\"TcpBasicClientApp\""
param **.source_023.app[0].localAddress "\"\""
param **.source_023.app[0].connectAddress "\"sink_023\""
param **.source_023.app[0].connectPort 1100
param **.source_023.app[0].startTime 0s
param **.source_023.app[0].idleInterval 1000s
param **.source_023.app[0].requestLength 1300B
param **.source_023.app[0].replyLength 20B
param **.source_023.app[0].thinkTime 0s
param **.source_023.app[0].numRequestsPerSession 77
param **.source_024.numApps 1
param **.source_024.app[0].typename "\"TcpBasicClientApp\""
param **.source_024.app[0].localAddress "\"\""
param **.source_024.app[0].connectAddress "\"sink_024\""
param **.source_024.app[0].connectPort 1100
param **.source_024.app[0].startTime 0s
param **.source_024.app[0].idleInterval 1000s
param **.source_024.app[0].requestLength 1300B
param **.source_024.app[0].replyLength 20B
param **.source_024.app[0].thinkTime 0s
param **.source_024.app[0].numRequestsPerSession 77
param **.source_025.numApps 1
param **.source_025.app[0].typename "\"TcpBasicClientApp\""
param **.source_025.app[0].localAddress "\"\""
param **.source_025.app[0].connectAddress "\"sink_025\""
param **.source_025.app[0].connectPort 1100
param **.source_025.app[0].startTime 0s
param **.source_025.app[0].idleInterval 1000s
param **.source_025.app[0].requestLength 1300B
param **.source_025.app[0].replyLength 20B
param **.source_025.app[0].thinkTime 0s
param **.source_025.app[0].numRequestsPerSession 77
param **.source_026.numApps 1
param **.source_026.app[0].typename "\"TcpBasicClientApp\""
param **.source_026.app[0].localAddress "\"\""
param **.source_026.app[0].connectAddress "\"sink_026\""
param **.source_026.app[0].connectPort 1100
param **.source_026.app[0].startTime 0s
param **.source_026.app[0].idleInterval 1000s
param **.source_026.app[0].requestLength 1300B
param **.source_026.app[0].replyLength 20B
param **.source_026.app[0].thinkTime 0s
param **.source_026.app[0].numRequestsPerSession 77
param **.source_027.numApps 1
param **.source_027.app[0].typename "\"TcpBasicClientApp\""
param **.source_027.app[0].localAddress "\"\""
param **.source_027.app[0].connectAddress "\"sink_027\""
param **.source_027.app[0].connectPort 1100
param **.source_027.app[0].startTime 0s
param **.source_027.app[0].idleInterval 1000s
param **.source_027.app[0].requestLength 1300B
param **.source_027.app[0].replyLength 20B
param **.source_027.app[0].thinkTime 0s
param **.source_027.app[0].numRequestsPerSession 77
param **.source_028.numApps 1
param **.source_028.app[0].typename "\"TcpBasicClientApp\""
param **.source_028.app[0].localAddress "\"\""
param **.source_028.app[0].connectAddress "\"sink_028\""
param **.source_028.app[0].connectPort 1100
param **.source_028.app[0].startTime 0s
param **.source_028.app[0].idleInterval 1000s
param **.source_028.app[0].requestLength 1300B
param **.source_028.app[0].replyLength 20B
param **.source_028.app[0].thinkTime 0s
param **.source_028.app[0].numRequestsPerSession 77
param **.source_029.numApps 1
param **.source_029.app[0].typename "\"TcpBasicClientApp\""
param **.source_029.app[0].localAddress "\"\""
param **.source_029.app[0].connectAddress "\"sink_029\""
param **.source_029.app[0].connectPort 1100
param **.source_029.app[0].startTime 0s
param **.source_029.app[0].idleInterval 1000s
param **.source_029.app[0].requestLength 1300B
param **.source_029.app[0].replyLength 20B
param **.source_029.app[0].thinkTime 0s
param **.source_029.app[0].numRequestsPerSession 77
param **.source_030.numApps 1
param **.source_030.app[0].typename "\"TcpBasicClientApp\""
param **.source_030.app[0].localAddress "\"\""
param **.source_030.app[0].connectAddress "\"sink_030\""
param **.source_030.app[0].connectPort 1100
param **.source_030.app[0].startTime 0s
param **.source_030.app[0].idleInterval 1000s
param **.source_030.app[0].requestLength 1300B
param **.source_030.app[0].replyLength 20B
param **.source_030.app[0].thinkTime 0s
param **.source_030.app[0].numRequestsPerSession 77
param **.source_031.numApps 1
param **.source_031.app[0].typename "\"TcpBasicClientApp\""
param **.source_031.app[0].localAddress "\"\""
param **.source_031.app[0].connectAddress "\"sink_031\""
param **.source_031.app[0].connectPort 1100
param **.source_031.app[0].startTime 0s
param **.source_031.app[0].idleInterval 1000s
param **.source_031.app[0].requestLength 1300B
param **.source_031.app[0].replyLength 20B
param **.source_031.app[0].thinkTime 0s
param **.source_031.app[0].numRequestsPerSession 77
param **.source_032.numApps 1
param **.source_032.app[0].typename "\"TcpBasicClientApp\""
param **.source_032.app[0].localAddress "\"\""
param **.source_032.app[0].connectAddress "\"sink_032\""
param **.source_032.app[0].connectPort 1100
param **.source_032.app[0].startTime 0s
param **.source_032.app[0].idleInterval 1000s
param **.source_032.app[0].requestLength 1300B
param **.source_032.app[0].replyLength 20B
param **.source_032.app[0].thinkTime 0s
param **.source_032.app[0].numRequestsPerSession 77
param **.source_033.numApps 1
param **.source_033.app[0].typename "\"TcpBasicClientApp\""
param **.source_033.app[0].localAddress "\"\""
param **.source_033.app[0].connectAddress "\"sink_033\""
param **.source_033.app[0].connectPort 1100
param **.source_033.app[0].startTime 0s
param **.source_033.app[0].idleInterval 1000s
param **.source_033.app[0].requestLength 1300B
param **.source_033.app[0].replyLength 20B
param **.source_033.app[0].thinkTime 0s
param **.source_033.app[0].numRequestsPerSession 77
param **.source_034.numApps 1
param **.source_034.app[0].typename "\"TcpBasicClientApp\""
param **.source_034.app[0].localAddress "\"\""
param **.source_034.app[0].connectAddress "\"sink_034\""
param **.source_034.app[0].connectPort 1100
param **.source_034.app[0].startTime 0s
param **.source_034.app[0].idleInterval 1000s
param **.source_034.app[0].requestLength 1300B
param **.source_034.app[0].replyLength 20B
param **.source_034.app[0].thinkTime 0s
param **.source_034.app[0].numRequestsPerSession 77
param **.source_035.numApps 1
param **.source_035.app[0].typename "\"TcpBasicClientApp\""
param **.source_035.app[0].localAddress "\"\""
param **.source_035.app[0].connectAddress "\"sink_035\""
param **.source_035.app[0].connectPort 1100
param **.source_035.app[0].startTime 0s
param **.source_035.app[0].idleInterval 1000s
param **.source_035.app[0].requestLength 1300B
param **.source_035.app[0].replyLength 20B
param **.source_035.app[0].thinkTime 0s
param **.source_035.app[0].numRequestsPerSession 77
param **.source_036.numApps 1
param **.source_036.app[0].typename "\"TcpBasicClientApp\""
param **.source_036.app[0].localAddress "\"\""
param **.source_036.app[0].connectAddress "\"sink_036\""
param **.source_036.app[0].connectPort 1100
param **.source_036.app[0].startTime 0s
param **.source_036.app[0].idleInterval 1000s
param **.source_036.app[0].requestLength 1300B
param **.source_036.app[0].replyLength 20B
param **.source_036.app[0].thinkTime 0s
param **.source_036.app[0].numRequestsPerSession 77
param **.source_037.numApps 1
param **.source_037.app[0].typename "\"TcpBasicClientApp\""
param **.source_037.app[0].localAddress "\"\""
param **.source_037.app[0].connectAddress "\"sink_037\""
param **.source_037.app[0].connectPort 1100
param **.source_037.app[0].startTime 0s
param **.source_037.app[0].idleInterval 1000s
param **.source_037.app[0].requestLength 1300B
param **.source_037.app[0].replyLength 20B
param **.source_037.app[0].thinkTime 0s
param **.source_037.app[0].numRequestsPerSession 77
param **.source_038.numApps 1
param **.source_038.app[0].typename "\"TcpBasicClientApp\""
param **.source_038.app[0].localAddress "\"\""
param **.source_038.app[0].connectAddress "\"sink_038\""
param **.source_038.app[0].connectPort 1100
param **.source_038.app[0].startTime 0s
param **.source_038.app[0].idleInterval 1000s
param **.source_038.app[0].requestLength 1300B
param **.source_038.app[0].replyLength 20B
param **.source_038.app[0].thinkTime 0s
param **.source_038.app[0].numRequestsPerSession 77
param **.source_039.numApps 1
param **.source_039.app[0].typename "\"TcpBasicClientApp\""
param **.source_039.app[0].localAddress "\"\""
param **.source_039.app[0].connectAddress "\"sink_039\""
param **.source_039.app[0].connectPort 1100
param **.source_039.app[0].startTime 0s
param **.source_039.app[0].idleInterval 1000s
param **.source_039.app[0].requestLength 1300B
param **.source_039.app[0].replyLength 20B
param **.source_039.app[0].thinkTime 0s
param **.source_039.app[0].numRequestsPerSession 77
param **.source_040.numApps 1
param **.source_040.app[0].typename "\"TcpBasicClientApp\""
param **.source_040.app[0].localAddress "\"\""
param **.source_040.app[0].connectAddress "\"sink_040\""
param **.source_040.app[0].connectPort 1100
param **.source_040.app[0].startTime 0s
param **.source_040.app[0].idleInterval 1000s
param **.source_040.app[0].requestLength 1300B
param **.source_040.app[0].replyLength 20B
param **.source_040.app[0].thinkTime 0s
param **.source_040.app[0].numRequestsPerSession 77
param **.source_041.numApps 1
param **.source_041.app[0].typename "\"TcpBasicClientApp\""
param **.source_041.app[0].localAddress "\"\""
param **.source_041.app[0].connectAddress "\"sink_041\""
param **.source_041.app[0].connectPort 1100
param **.source_041.app[0].startTime 0s
param **.source_041.app[0].idleInterval 1000s
param **.source_041.app[0].requestLength 1300B
param **.source_041.app[0].replyLength 20B
param **.source_041.app[0].thinkTime 0s
param **.source_041.app[0].numRequestsPerSession 77
param **.source_042.numApps 1
param **.source_042.app[0].typename "\"TcpBasicClientApp\""
param **.source_042.app[0].localAddress "\"\""
param **.source_042.app[0].connectAddress "\"sink_042\""
param **.source_042.app[0].connectPort 1100
param **.source_042.app[0].startTime 0s
param **.source_042.app[0].idleInterval 1000s
param **.source_042.app[0].requestLength 1300B
param **.source_042.app[0].replyLength 20B
param **.source_042.app[0].thinkTime 0s
param **.source_042.app[0].numRequestsPerSession 77
param **.source_043.numApps 1
param **.source_043.app[0].typename "\"TcpBasicClientApp\""
param **.source_043.app[0].localAddress "\"\""
param **.source_043.app[0].connectAddress "\"sink_043\""
param **.source_043.app[0].connectPort 1100
param **.source_043.app[0].startTime 0s
param **.source_043.app[0].idleInterval 1000s
param **.source_043.app[0].requestLength 1300B
param **.source_043.app[0].replyLength 20B
param **.source_043.app[0].thinkTime 0s
param **.source_043.app[0].numRequestsPerSession 77
param **.source_044.numApps 1
param **.source_044.app[0].typename "\"TcpBasicClientApp\""
param **.source_044.app[0].localAddress "\"\""
param **.source_044.app[0].connectAddress "\"sink_044\""
param **.source_044.app[0].connectPort 1100
param **.source_044.app[0].startTime 0s
param **.source_044.app[0].idleInterval 1000s
param **.source_044.app[0].requestLength 1300B
param **.source_044.app[0].replyLength 20B
param **.source_044.app[0].thinkTime 0s
param **.source_044.app[0].numRequestsPerSession 77
param **.source_045.numApps 1
param **.source_045.app[0].typename "\"TcpBasicClientApp\""
param **.source_045.app[0].localAddress "\"\""
param **.source_045.app[0].connectAddress "\"sink_045\""
param **.source_045.app[0].connectPort 1100
param **.source_045.app[0].startTime 0s
param **.source_045.app[0].idleInterval 1000s
param **.source_045.app[0].requestLength 1300B
param **.source_045.app[0].replyLength 20B
param **.source_045.app[0].thinkTime 0s
param **.source_045.app[0].numRequestsPerSession 77
param **.source_046.numApps 1
param **.source_046.app[0].typename "\"TcpBasicClientApp\""
param **.source_046.app[0].localAddress "\"\""
param **.source_046.app[0].connectAddress "\"sink_046\""
param **.source_046.app[0].connectPort 1100
param **.source_046.app[0].startTime 0s
param **.source_046.app[0].idleInterval 1000s
param **.source_046.app[0].requestLength 1300B
param **.source_046.app[0].replyLength 20B
param **.source_046.app[0].thinkTime 0s
param **.source_046.app[0].numRequestsPerSession 77
param **.source_047.numApps 1
param **.source_047.app[0].typename "\"TcpBasicClientApp\""
param **.source_047.app[0].localAddress "\"\""
param **.source_047.app[0].connectAddress "\"sink_047\""
param **.source_047.app[0].connectPort 1100
param **.source_047.app[0].startTime 0s
param **.source_047.app[0].idleInterval 1000s
param **.source_047.app[0].requestLength 1300B
param **.source_047.app[0].replyLength 20B
param **.source_047.app[0].thinkTime 0s
param **.source_047.app[0].numRequestsPerSession 77
param **.source_048.numApps 1
param **.source_048.app[0].typename "\"TcpBasicClientApp\""
param **.source_048.app[0].localAddress "\"\""
param **.source_048.app[0].connectAddress "\"sink_048\""
param **.source_048.app[0].connectPort 1100
param **.source_048.app[0].startTime 0s
param **.source_048.app[0].idleInterval 1000s
param **.source_048.app[0].requestLength 1300B
param **.source_048.app[0].replyLength 20B
param **.source_048.app[0].thinkTime 0s
param **.source_048.app[0].numRequestsPerSession 77
param **.source_049.numApps 1
param **.source_049.app[0].typename "\"TcpBasicClientApp\""
param **.source_049.app[0].localAddress "\"\""
param **.source_049.app[0].connectAddress "\"sink_049\""
param **.source_049.app[0].connectPort 1100
param **.source_049.app[0].startTime 0s
param **.source_049.app[0].idleInterval 1000s
param **.source_049.app[0].requestLength 1300B
param **.source_049.app[0].replyLength 20B
param **.source_049.app[0].thinkTime 0s
param **.source_049.app[0].numRequestsPerSession 77
param **.source_050.numApps 1
param **.source_050.app[0].typename "\"TcpBasicClientApp\""
param **.source_050.app[0].localAddress "\"\""
param **.source_050.app[0].connectAddress "\"sink_050\""
param **.source_050.app[0].connectPort 1100
param **.source_050.app[0].startTime 0s
param **.source_050.app[0].idleInterval 1000s
param **.source_050.app[0].requestLength 1300B
param **.source_050.app[0].replyLength 20B
param **.source_050.app[0].thinkTime 0s
param **.source_050.app[0].numRequestsPerSession 77
param **.source_051.numApps 1
param **.source_051.app[0].typename "\"TcpBasicClientApp\""
param **.source_051.app[0].localAddress "\"\""
param **.source_051.app[0].connectAddress "\"sink_051\""
param **.source_051.app[0].connectPort 1100
param **.source_051.app[0].startTime 0s
param **.source_051.app[0].idleInterval 1000s
param **.source_051.app[0].requestLength 1300B
param **.source_051.app[0].replyLength 20B
param **.source_051.app[0].thinkTime 0s
param **.source_051.app[0].numRequestsPerSession 77
param **.source_052.numApps 1
param **.source_052.app[0].typename "\"TcpBasicClientApp\""
param **.source_052.app[0].localAddress "\"\""
param **.source_052.app[0].connectAddress "\"sink_052\""
param **.source_052.app[0].connectPort 1100
param **.source_052.app[0].startTime 0s
param **.source_052.app[0].idleInterval 1000s
param **.source_052.app[0].requestLength 1300B
param **.source_052.app[0].replyLength 20B
param **.source_052.app[0].thinkTime 0s
param **.source_052.app[0].numRequestsPerSession 77
param **.source_053.numApps 1
param **.source_053.app[0].typename "\"TcpBasicClientApp\""
param **.source_053.app[0].localAddress "\"\""
param **.source_053.app[0].connectAddress "\"sink_053\""
param **.source_053.app[0].connectPort 1100
param **.source_053.app[0].startTime 0s
param **.source_053.app[0].idleInterval 1000s
param **.source_053.app[0].requestLength 1300B
param **.source_053.app[0].replyLength 20B
param **.source_053.app[0].thinkTime 0s
param **.source_053.app[0].numRequestsPerSession 77
param **.source_054.numApps 1
param **.source_054.app[0].typename "\"TcpBasicClientApp\""
param **.source_054.app[0].localAddress "\"\""
param **.source_054.app[0].connectAddress "\"sink_054\""
param **.source_054.app[0].connectPort 1100
param **.source_054.app[0].startTime 0s
param **.source_054.app[0].idleInterval 1000s
param **.source_054.app[0].requestLength 1300B
param **.source_054.app[0].replyLength 20B
param **.source_054.app[0].thinkTime 0s
param **.source_054.app[0].numRequestsPerSession 77
param **.source_055.numApps 1
param **.source_055.app[0].typename "\"TcpBasicClientApp\""
param **.source_055.app[0].localAddress "\"\""
param **.source_055.app[0].connectAddress "\"sink_055\""
param **.source_055.app[0].connectPort 1100
param **.source_055.app[0].startTime 0s
param **.source_055.app[0].idleInterval 1000s
param **.source_055.app[0].requestLength 1300B
param **.source_055.app[0].replyLength 20B
param **.source_055.app[0].thinkTime 0s
param **.source_055.app[0].numRequestsPerSession 77
param **.source_056.numApps 1
param **.source_056.app[0].typename "\"TcpBasicClientApp\""
param **.source_056.app[0].localAddress "\"\""
param **.source_056.app[0].connectAddress "\"sink_056\""
param **.source_056.app[0].connectPort 1100
param **.source_056.app[0].startTime 0s
param **.source_056.app[0].idleInterval 1000s
param **.source_056.app[0].requestLength 1300B
param **.source_056.app[0].replyLength 20B
param **.source_056.app[0].thinkTime 0s
param **.source_056.app[0].numRequestsPerSession 77
param **.source_057.numApps 1
param **.source_057.app[0].typename "\"TcpBasicClientApp\""
param **.source_057.app[0].localAddress "\"\""
param **.source_057.app[0].connectAddress "\"sink_057\""
param **.source_057.app[0].connectPort 1100
param **.source_057.app[0].startTime 0s
param **.source_057.app[0].idleInterval 1000s
param **.source_057.app[0].requestLength 1300B
param **.source_057.app[0].replyLength 20B
param **.source_057.app[0].thinkTime 0s
param **.source_057.app[0].numRequestsPerSession 77
param **.source_058.numApps 1
param **.source_058.app[0].typename "\"TcpBasicClientApp\""
param **.source_058.app[0].localAddress "\"\""
param **.source_058.app[0].connectAddress "\"sink_058\""
param **.source_058.app[0].connectPort 1100
param **.source_058.app[0].startTime 0s
param **.source_058.app[0].idleInterval 1000s
param **.source_058.app[0].requestLength 1300B
param **.source_058.app[0].replyLength 20B
param **.source_058.app[0].thinkTime 0s
param **.source_058.app[0].numRequestsPerSession 77
param **.source_059.numApps 1
param **.source_059.app[0].typename "\"TcpBasicClientApp\""
param **.source_059.app[0].localAddress "\"\""
param **.source_059.app[0].connectAddress "\"sink_059\""
param **.source_059.app[0].connectPort 1100
param **.source_059.app[0].startTime 0s
param **.source_059.app[0].idleInterval 1000s
param **.source_059.app[0].requestLength 1300B
param **.source_059.app[0].replyLength 20B
param **.source_059.app[0].thinkTime 0s
param **.source_059.app[0].numRequestsPerSession 77
param **.source_060.numApps 1
param **.source_060.app[0].typename "\"TcpBasicClientApp\""
param **.source_060.app[0].localAddress "\"\""
param **.source_060.app[0].connectAddress "\"sink_060\""
param **.source_060.app[0].connectPort 1100
param **.source_060.app[0].startTime 0s
param **.source_060.app[0].idleInterval 1000s
param **.source_060.app[0].requestLength 1300B
param **.source_060.app[0].replyLength 20B
param **.source_060.app[0].thinkTime 0s
param **.source_060.app[0].numRequestsPerSession 77
param **.source_061.numApps 1
param **.source_061.app[0].typename "\"TcpBasicClientApp\""
param **.source_061.app[0].localAddress "\"\""
param **.source_061.app[0].connectAddress "\"sink_061\""
param **.source_061.app[0].connectPort 1100
param **.source_061.app[0].startTime 0s
param **.source_061.app[0].idleInterval 1000s
param **.source_061.app[0].requestLength 1300B
param **.source_061.app[0].replyLength 20B
param **.source_061.app[0].thinkTime 0s
param **.source_061.app[0].numRequestsPerSession 77
param **.source_062.numApps 1
param **.source_062.app[0].typename "\"TcpBasicClientApp\""
param **.source_062.app[0].localAddress "\"\""
param **.source_062.app[0].connectAddress "\"sink_062\""
param **.source_062.app[0].connectPort 1100
param **.source_062.app[0].startTime 0s
param **.source_062.app[0].idleInterval 1000s
param **.source_062.app[0].requestLength 1300B
param **.source_062.app[0].replyLength 20B
param **.source_062.app[0].thinkTime 0s
param **.source_062.app[0].numRequestsPerSession 77
param **.source_063.numApps 1
param **.source_063.app[0].typename "\"TcpBasicClientApp\""
param **.source_063.app[0].localAddress "\"\""
param **.source_063.app[0].connectAddress "\"sink_063\""
param **.source_063.app[0].connectPort 1100
param **.source_063.app[0].startTime 0s
param **.source_063.app[0].idleInterval 1000s
param **.source_063.app[0].requestLength 1300B
param **.source_063.app[0].replyLength 20B
param **.source_063.app[0].thinkTime 0s
param **.source_063.app[0].numRequestsPerSession 77
param **.source_064.numApps 1
param **.source_064.app[0].typename "\"TcpBasicClientApp\""
param **.source_064.app[0].localAddress "\"\""
param **.source_064.app[0].connectAddress "\"sink_064\""
param **.source_064.app[0].connectPort 1100
param **.source_064.app[0].startTime 0s
param **.source_064.app[0].idleInterval 1000s
param **.source_064.app[0].requestLength 1300B
param **.source_064.app[0].replyLength 20B
param **.source_064.app[0].thinkTime 0s
param **.source_064.app[0].numRequestsPerSession 77
param **.source_065.numApps 1
param **.source_065.app[0].typename "\"TcpBasicClientApp\""
param **.source_065.app[0].localAddress "\"\""
param **.source_065.app[0].connectAddress "\"sink_065\""
param **.source_065.app[0].connectPort 1100
param **.source_065.app[0].startTime 0s
param **.source_065.app[0].idleInterval 1000s
param **.source_065.app[0].requestLength 1300B
param **.source_065.app[0].replyLength 20B
param **.source_065.app[0].thinkTime 0s
param **.source_065.app[0].numRequestsPerSession 77
param **.source_066.numApps 1
param **.source_066.app[0].typename "\"TcpBasicClientApp\""
param **.source_066.app[0].localAddress "\"\""
param **.source_066.app[0].connectAddress "\"sink_066\""
param **.source_066.app[0].connectPort 1100
param **.source_066.app[0].startTime 0s
param **.source_066.app[0].idleInterval 1000s
param **.source_066.app[0].requestLength 1300B
param **.source_066.app[0].replyLength 20B
param **.source_066.app[0].thinkTime 0s
param **.source_066.app[0].numRequestsPerSession 77
param **.source_067.numApps 1
param **.source_067.app[0].typename "\"TcpBasicClientApp\""
param **.source_067.app[0].localAddress "\"\""
param **.source_067.app[0].connectAddress "\"sink_067\""
param **.source_067.app[0].connectPort 1100
param **.source_067.app[0].startTime 0s
param **.source_067.app[0].idleInterval 1000s
param **.source_067.app[0].requestLength 1300B
param **.source_067.app[0].replyLength 20B
param **.source_067.app[0].thinkTime 0s
param **.source_067.app[0].numRequestsPerSession 77
param **.source_068.numApps 1
param **.source_068.app[0].typename "\"TcpBasicClientApp\""
param **.source_068.app[0].localAddress "\"\""
param **.source_068.app[0].connectAddress "\"sink_068\""
param **.source_068.app[0].connectPort 1100
param **.source_068.app[0].startTime 0s
param **.source_068.app[0].idleInterval 1000s
param **.source_068.app[0].requestLength 1300B
param **.source_068.app[0].replyLength 20B
param **.source_068.app[0].thinkTime 0s
param **.source_068.app[0].numRequestsPerSession 77
param **.source_069.numApps 1
param **.source_069.app[0].typename "\"TcpBasicClientApp\""
param **.source_069.app[0].localAddress "\"\""
param **.source_069.app[0].connectAddress "\"sink_069\""
param **.source_069.app[0].connectPort 1100
param **.source_069.app[0].startTime 0s
param **.source_069.app[0].idleInterval 1000s
param **.source_069.app[0].requestLength 1300B
param **.source_069.app[0].replyLength 20B
param **.source_069.app[0].thinkTime 0s
param **.source_069.app[0].numRequestsPerSession 77
param **.source_070.numApps 1
param **.source_070.app[0].typename "\"TcpBasicClientApp\""
param **.source_070.app[0].localAddress "\"\""
param **.source_070.app[0].connectAddress "\"sink_070\""
param **.source_070.app[0].connectPort 1100
param **.source_070.app[0].startTime 0s
param **.source_070.app[0].idleInterval 1000s
param **.source_070.app[0].requestLength 1300B
param **.source_070.app[0].replyLength 20B
param **.source_070.app[0].thinkTime 0s
param **.source_070.app[0].numRequestsPerSession 77
param **.source_071.numApps 1
param **.source_071.app[0].typename "\"TcpBasicClientApp\""
param **.source_071.app[0].localAddress "\"\""
param **.source_071.app[0].connectAddress "\"sink_071\""
param **.source_071.app[0].connectPort 1100
param **.source_071.app[0].startTime 0s
param **.source_071.app[0].idleInterval 1000s
param **.source_071.app[0].requestLength 1300B
param **.source_071.app[0].replyLength 20B
param **.source_071.app[0].thinkTime 0s
param **.source_071.app[0].numRequestsPerSession 77
param **.source_072.numApps 1
param **.source_072.app[0].typename "\"TcpBasicClientApp\""
param **.source_072.app[0].localAddress "\"\""
param **.source_072.app[0].connectAddress "\"sink_072\""
param **.source_072.app[0].connectPort 1100
param **.source_072.app[0].startTime 0s
param **.source_072.app[0].idleInterval 1000s
param **.source_072.app[0].requestLength 1300B
param **.source_072.app[0].replyLength 20B
param **.source_072.app[0].thinkTime 0s
param **.source_072.app[0].numRequestsPerSession 77
param **.source_073.numApps 1
param **.source_073.app[0].typename "\"TcpBasicClientApp\""
param **.source_073.app[0].localAddress "\"\""
param **.source_073.app[0].connectAddress "\"sink_073\""
param **.source_073.app[0].connectPort 1100
param **.source_073.app[0].startTime 0s
param **.source_073.app[0].idleInterval 1000s
param **.source_073.app[0].requestLength 1300B
param **.source_073.app[0].replyLength 20B
param **.source_073.app[0].thinkTime 0s
param **.source_073.app[0].numRequestsPerSession 77
param **.source_074.numApps 1
param **.source_074.app[0].typename "\"TcpBasicClientApp\""
param **.source_074.app[0].localAddress "\"\""
param **.source_074.app[0].connectAddress "\"sink_074\""
param **.source_074.app[0].connectPort 1100
param **.source_074.app[0].startTime 0s
param **.source_074.app[0].idleInterval 1000s
param **.source_074.app[0].requestLength 1300B
param **.source_074.app[0].replyLength 20B
param **.source_074.app[0].thinkTime 0s
param **.source_074.app[0].numRequestsPerSession 77
param **.source_075.numApps 1
param **.source_075.app[0].typename "\"TcpBasicClientApp\""
param **.source_075.app[0].localAddress "\"\""
param **.source_075.app[0].connectAddress "\"sink_075\""
param **.source_075.app[0].connectPort 1100
param **.source_075.app[0].startTime 0s
param **.source_075.app[0].idleInterval 1000s
param **.source_075.app[0].requestLength 1300B
param **.source_075.app[0].replyLength 20B
param **.source_075.app[0].thinkTime 0s
param **.source_075.app[0].numRequestsPerSession 77
param **.source_076.numApps 1
param **.source_076.app[0].typename "\"TcpBasicClientApp\""
param **.source_076.app[0].localAddress "\"\""
param **.source_076.app[0].connectAddress "\"sink_076\""
param **.source_076.app[0].connectPort 1100
param **.source_076.app[0].startTime 0s
param **.source_076.app[0].idleInterval 1000s
param **.source_076.app[0].requestLength 1300B
param **.source_076.app[0].replyLength 20B
param **.source_076.app[0].thinkTime 0s
param **.source_076.app[0].numRequestsPerSession 77
param **.source_077.numApps 1
param **.source_077.app[0].typename "\"TcpBasicClientApp\""
param **.source_077.app[0].localAddress "\"\""
param **.source_077.app[0].connectAddress "\"sink_077\""
param **.source_077.app[0].connectPort 1100
param **.source_077.app[0].startTime 0s
param **.source_077.app[0].idleInterval 1000s
param **.source_077.app[0].requestLength 1300B
param **.source_077.app[0].replyLength 20B
param **.source_077.app[0].thinkTime 0s
param **.source_077.app[0].numRequestsPerSession 77
param **.source_078.numApps 1
param **.source_078.app[0].typename "\"TcpBasicClientApp\""
param **.source_078.app[0].localAddress "\"\""
param **.source_078.app[0].connectAddress "\"sink_078\""
param **.source_078.app[0].connectPort 1100
param **.source_078.app[0].startTime 0s
param **.source_078.app[0].idleInterval 1000s
param **.source_078.app[0].requestLength 1300B
param **.source_078.app[0].replyLength 20B
param **.source_078.app[0].thinkTime 0s
param **.source_078.app[0].numRequestsPerSession 77
param **.source_079.numApps 1
param **.source_079.app[0].typename "\"TcpBasicClientApp\""
param **.source_079.app[0].localAddress "\"\""
param **.source_079.app[0].connectAddress "\"sink_079\""
param **.source_079.app[0].connectPort 1100
param **.source_079.app[0].startTime 0s
param **.source_079.app[0].idleInterval 1000s
param **.source_079.app[0].requestLength 1300B
param **.source_079.app[0].replyLength 20B
param **.source_079.app[0].thinkTime 0s
param **.source_079.app[0].numRequestsPerSession 77
param **.tcp.mss 1400
param **.tcp.tcpAlgorithmClass "\"TcpReno\""
param **.tcp.crcMode "\"computed\""
param **.app[*].dataTransferMode "\"object\""

statistic FatTree_4_seed2_jitter.sink_000.app[0] endToEndDelay:histogram
field count 77
field mean 0.014755948051948
field stddev 0.0017001778846259
field min 0.008729
field max 0.020062
field sum 1.136208
field sqrsum 0.016985512192
attr interpolationmode none
attr source dataAge(packetReceived)
attr title "end-to-end delay, histogram"
attr unit s
bin	-inf	0
bin	0.0058	0
bin	0.006	0
bin	0.0062	0
bin	0.0064	0
bin	0.0066	0
bin	0.0068	0
bin	0.007	0
bin	0.0072	0
bin	0.0074	0
bin	0.0076	0
bin	0.0078	0
bin	0.008	0
bin	0.0082	0
bin	0.0084	0
bin	0.0086	1
bin	0.0088	0
bin	0.009	0
bin	0.0092	0
bin	0.0094	0
bin	0.0096	0
bin	0.0098	0
bin	0.01	0
bin	0.0102	0
bin	0.0104	0
bin	0.0106	0
bin	0.0108	0
bin	0.011	0
bin	0.0112	1
bin	0.0114	0
bin	0.0116	0
bin	0.0118	1
bin	0.012	1
bin	0.0122	1
bin	0.0124	1
bin	0.0126	1
bin	0.0128	2
bin	0.013	1
bin	0.0132	1
bin	0.0134	4
bin	0.0136	4
bin	0.0138	2
bin	0.014	5
bin	0.0142	6
bin	0.0144	4
bin	0.0146	4
bin	0.0148	10
bin	0.015	4
bin	0.0152	2
bin	0.0154	2
bin	0.0156	4
bin	0.0158	1
bin	0.016	1
bin	0.0162	3
bin	0.0164	0
bin	0.0166	1
bin	0.0168	1
bin	0.017	0
bin	0.0172	3
bin	0.0174	1
bin	0.0176	1
bin	0.0178	0
bin	0.018	1
bin	0.0182	0
bin	0.0184	0
bin	0.0186	1
bin	0.0188	0
bin	0.019	0
bin	0.0192	0
bin	0.0194	0
bin	0.0196	0
bin	0.0198	0
bin	0.02	1
bin	0.0202	0
bin	0.0204	0
bin	0.0206	0
bin	0.0208	0
bin	0.021	0
bin	0.0212	0
bin	0.0214	0
bin	0.0216	0
bin	0.0218	0
bin	0.022	0
bin	0.0222	0
bin	0.0224	0
bin	0.0226	0
bin	0.0228	0
bin	0.023	0
statistic FatTree_4_seed2_jitter.sink_000.app[0] endToEndDelay:weightedHistogram
field count 77
field mean 0.014755948051948
field stddev 0.001700177884626
field min 0.008729
field max 0.020062
field weights 800800
field weightedSum 11816.5632
field sqrSumWeights 8328320000
field weightedSqrSum 176.6493267968
attr interpolationmode none
attr source dataAge(packetReceived)
attr title "end-to-end delay, weightedHistogram"
attr unit s
bin	-inf	0
bin	0.0058	0
bin	0.006	0
bin	0.0062	0
bin	0.0064	0
bin	0.0066	0
bin	0.0068	0
bin	0.007	0
bin	0.0072	0
bin	0.0074	0
bin	0.0076	0
bin	0.0078	0
bin	0.008	0
bin	0.0082	0
bin	0.0084	0
bin	0.0086	10400
bin	0.0088	0
bin	0.009	0
bin	0.0092	0
bin	0.0094	0
bin	0.0096	0
bin	0.0098	0
bin	0.01	0
bin	0.0102	0
bin	0.0104	0
bin	0.0106	0
bin	0.0108	0
bin	0.011	0
bin	0.0112	10400
bin	0.0114	0
bin	0.0116	0
bin	0.0118	10400
bin	0.012	10400
bin	0.0122	10400
bin	0.0124	10400
bin	0.0126	10400
bin	0.0128	20800
bin	0.013	10400
bin	0.0132	10400
bin	0.0134	41600
bin	0.0136	41600
bin	0.0138	20800
bin	0.014	52000
bin	0.0142	62400
bin	0.0144	41600
bin	0.0146	41600
bin	0.0148	104000
bin	0.015	41600
bin	0.0152	20800
bin	0.0154	20800
bin	0.0156	41600
bin	0.0158	10400
bin	0.016	10400
bin	0.0162	31200
bin	0.0164	0
bin	0.0166	10400
bin	0.0168	10400
bin	0.017	0
bin	0.0172	31200
bin	0.0174	10400
bin	0.0176	10400
bin	0.0178	0
bin	0.018	10400
bin	0.0182	0
bin	0.0184	0
bin	0.0186	10400
bin	0.0188	0
bin	0.019	0
bin	0.0192	0
bin	0.0194	0
bin	0.0196	0
bin	0.0198	0
bin	0.02	10400
bin	0.0202	0
bin	0.0204	0
bin	0.0206	0
bin	0.0208	0
bin	0.021	0
bin	0.0212	0
bin	0.0214	0
bin	0.0216	0
bin	0.0218	0
bin	0.022	0
bin	0.0222	0
bin	0.0224	0
bin	0.0226	0
bin	0.0228	0
bin	0.023	0
statistic FatTree_4_seed2_jitter.sink_001.app[0] endToEndDelay:histogram
field count 77
field mean 0.013707883116883
field stddev 0.0012329703754287
field min 0.010548
field max 0.016695
field sum 1.055507
field sqrsum 0.014584302997
attr interpolationmode none
attr source dataAge(packetReceived)
attr title "end-to-end delay, histogram"
attr unit s
bin	-inf	0
bin	0.009	0
bin	0.0092	0
bin	0.0094	0
bin	0.0096	0
bin	0.0098	0
bin	0.01	0
bin	0.0102	0
bin	0.0104	1
bin	0.0106	0
bin	0.0108	0
bin	0.011	0
bin	0.0112	1
bin	0.0114	1
bin	0.0116	5
bin	0.0118	1
bin	0.012	1
bin	0.0122	3
bin	0.0124	2
bin	0.0126	1
bin	0.0128	6
bin	0.013	2
bin	0.0132	4
bin	0.0134	1
bin	0.0136	7
bin	0.0138	7
bin	0.014	8
bin	0.0142	5
bin	0.0144	5
bin	0.0146	4
bin	0.0148	2
bin	0.015	2
bin	0.0152	2
bin	0.0154	2
bin	0.0156	2
bin	0.0158	0
bin	0.016	0
bin	0.0162	0
bin	0.0164	1
bin	0.0166	1
bin	0.0168	0
bin	0.017	0
bin	0.0172	0
bin	0.0174	0
bin	0.0176	0
bin	0.0178	0
bin	0.018	0
bin	0.0182	0
bin	0.0184	0
statistic FatTree_4_seed2_jitter.sink_001.app[0] endToEndDelay:weightedHistogram
field count 77
field mean 0.013707883116883
field stddev 0.0012329703754287
field min 0.010548
field max 0.016695
field weights 800800
field weightedSum 10977.2728
field sqrSumWeights 8328320000
field weightedSqrSum 151.6767511688
attr interpolationmode none
attr source dataAge(packetReceived)
attr title "end-to-end delay, weightedHistogram"
attr unit s
bin	-inf	0
bin	0.009	0
bin	0.0092	0
bin	0.0094	0
bin	0.0096	0
bin	0.0098	0
bin	0.01	0
bin	0.0102	0
bin	0.0104	10400
bin	0.0106	0
bin	0.0108	0
bin	0.011	0
bin	0.0112	10400
bin	0.0114	10400
bin	0.0116	52000
bin	0.0118	10400
bin	0.012	10400
bin	0.0122	31200
bin	0.0124	20800
bin	0.0126	10400
bin	0.0128	62400
bin	0.013	20800
bin	0.0132	41600
bin	0.0134	10400
bin	0.0136	72800
bin	0.0138	72800
bin	0.014	83200
bin	0.0142	52000
bin	0.0144	52000
bin	0.0146	41600
bin	0.0148	20800
bin	0.015	20800
bin	0.0152	20800
bin	0.0154	20800
bin	0.0156	20800
bin	0.0158	0
bin	0.016	0
bin	0.0162	0
bin	0.0164	10400
bin	0.0166	10400
bin	0.0168	0
bin	0.017	0
bin	0.0172	0
bin	0.0174	0
bin	0.0176	0
bin	0.0178	0
bin	0.018	0
bin	0.0182	0
bin	0.0184	0
statistic FatTree_4_seed2_jitter.sink_002.app[0] endToEndDelay:histogram
field count 77
field mean 0.01462112987013
field stddev 0.0014643263257126
field min 0.01106
field max 0.018367
field sum 1.125827
field sqrsum 0.016623825899
attr interpolationmode none
attr source dataAge(packetReceived)
attr title "end-to-end delay, histogram"
attr unit s
bin	-inf	0
bin	0.0092	0
bin	0.0094	0
bin	0.0096	0
bin	0.0098	0
bin	0.01	0
bin	0.0102	0
bin	0.0104	0
bin	0.0106	0
bin	0.0108	0
bin	0.011	1
bin	0.0112	0
bin	0.0114	1
bin	0.0116	0
bin	0.0118	0
bin	0.012	1
bin	0.0122	2
bin	0.0124	1
bin	0.0126	0
bin	0.0128	5
bin	0.013	3
bin	0.0132	3
bin	0.0134	1
bin	0.0136	4
bin	0.0138	3
bin	0.014	1
bin	0.0142	10
bin	0.0144	4
bin	0.0146	2
bin	0.0148	2
bin	0.015	5
bin	0.0152	2
bin	0.0154	4
bin	0.0156	11
bin	0.0158	2
bin	0.016	2
bin	0.0162	2
bin	0.0164	0
bin	0.0166	0
bin	0.0168	1
bin	0.017	0
bin	0.0172	0
bin	0.0174	0
bin	0.0176	1
bin	0.0178	1
bin	0.018	0
bin	0.0182	2
bin	0.0184	0
bin	0.0186	0
bin	0.0188	0
bin	0.019	0
bin	0.0192	0
bin	0.0194	0
bin	0.0196	0
bin	0.0198	0
bin	0.02	0
bin	0.0202	0
statistic FatTree_4_seed2_jitter.sink_002.app[0] endToEndDelay:weightedHistogram
field count 77
field mean 0.01462112987013
field stddev 0.0014643263257126
field min 0.01106
field max 0.018367
field weights 800800
field weightedSum 11708.6008
field sqrSumWeights 8328320000
field weightedSqrSum 172.8877893496
attr interpolationmode none
attr source dataAge(packetReceived)
attr title "end-to-end delay, weightedHistogram"
attr unit s
bin	-inf	0
bin	0.0092	0
bin	0.0094	0
bin	0.0096	0
bin	0.0098	0
bin	0.01	0
bin	0.0102	0
bin	0.0104	0
bin	0.0106	0
bin	0.0108	0
bin	0.011	10400
bin	0.0112	0
bin	0.0114	10400
bin	0.0116	0
bin	0.0118	0
bin	0.012	10400
bin	0.0122	20800
bin	0.0124	10400
bin	0.0126	0
bin	0.0128	52000
bin	0.013	31200
bin	0.0132	31200
bin	0.0134	10400
bin	0.0136	41600
bin	0.0138	31200
bin	0.014	10400
bin	0.0142	104000
bin	0.0144	41600
bin	0.0146	20800
bin	0.0148	20800
bin	0.015	52000
bin	0.0152	20800
bin	0.0154	41600
bin	0.0156	114400
bin	0.0158	20800
bin	0.016	20800
bin	0.0162	20800
bin	0.0164	0
bin	0.0166	0
bin	0.0168	10400
bin	0.017	0
bin	0.0172	0
bin	0.0174	0
bin	0.0176	10400
bin	0.0178	10400
bin	0.018	0
bin	0.0182	20800
bin	0.0184	0
bin	0.0186	0
bin	0.0188	0
bin	0.019	0
bin	0.0192	0
bin	0.0194	0
bin	0.0196	0
bin	0.0198	0
bin	0.02	0
bin	0.0202	0
statistic FatTree_4_seed2_jitter.sink_003.app[0] endToEndDelay:histogram
field count 77
field mean 0.014785649350649
field stddev 0.0010123675451533
field min 0.011894
field max 0.016736
field sum 1.138495
field sqrsum 0.016911279349
attr interpolationmode none
attr source dataAge(packetReceived)
attr title "end-to-end delay, histogram"
attr unit s
bin	-inf	0
bin	0.0118	1
bin	0.0119	0
bin	0.012	0
bin	0.0121	0
bin	0.0122	0
bin	0.0123	0
bin	0.0124	0
bin	0.0125	0
bin	0.0126	2
bin	0.0127	0
bin	0.0128	1
bin	0.0129	0
bin	0.013	0
bin	0.0131	1
bin	0.0132	1
bin	0.0133	1
bin	0.0134	0
bin	0.0135	4
bin	0.0136	3
bin	0.0137	2
bin	0.0138	0
bin	0.0139	2
bin	0.014	0
bin	0.0141	1
bin	0.0142	4
bin	0.0143	3
bin	0.0144	2
bin	0.0145	2
bin	0.0146	2
bin	0.0147	3
bin	0.0148	6
bin	0.0149	1
bin	0.015	3
bin	0.0151	3
bin	0.0152	2
bin	0.0153	1
bin	0.0154	4
bin	0.0155	6
bin	0.0156	3
bin	0.0157	3
bin	0.0158	1
bin	0.0159	2
bin	0.016	1
bin	0.0161	0
bin	0.0162	1
bin	0.0163	1
bin	0.0164	2
bin	0.0165	1
bin	0.0166	0
bin	0.0167	1
bin	0.0168	0
bin	0.0169	0
bin	0.017	0
bin	0.0171	0
bin	0.0172	0
bin	0.0173	0
bin	0.0174	0
bin	0.0175	0
bin	0.0176	0
bin	0.0177	0
statistic FatTree_4_seed2_jitter.sink_003.app[0] endToEndDelay:weightedHistogram
field count 77
field mean 0.014785649350649
field stddev 0.0010123675451534
field min 0.011894
field max 0.016736
field weights 800800
field weightedSum 11840.348
field sqrSumWeights 8328320000
field weightedSqrSum 175.8773052296
attr interpolationmode none
attr source dataAge(packetReceived)
attr title "end-to-end delay, weightedHistogram"
attr unit s
bin	-inf	0
bin	0.0118	10400
bin	0.0119	0
bin	0.012	0
bin	0.0121	0
bin	0.0122	0
bin	0.0123	0
bin	0.0124	0
bin	0.0125	0
bin	0.0126	20800
bin	0.0127	0
bin	0.0128	10400
bin	0.0129	0
bin	0.013	0
bin	0.0131	10400
bin	0.0132	10400
bin	0.0133	10400
bin	0.0134	0
bin	0.0135	41600
bin	0.0136	31200
bin	0.0137	20800
bin	0.0138	0
bin	0.0139	20800
bin	0.014	0
bin	0.0141	10400
bin	0.0142	41600
bin	0.0143	31200
bin	0.0144	20800
bin	0.0145	20800
bin	0.0146	20800
bin	0.0147	31200
bin	0.0148	62400
bin	0.0149	10400
bin	0.015	31200
bin	0.0151	31200
bin	0.0152	20800
bin	0.0153	10400
bin	0.0154	41600
bin	0.0155	62400
bin	0.0156	31200
bin	0.0157	31200
bin	0.0158	10400
bin	0.0159	20800
bin	0.016	10400
bin	0.0161	0
bin	0.0162	10400
bin	0.0163	10400
bin	0.0164	20800
bin	0.0165	10400
bin	0.0166	0
bin	0.0167	10400
bin	0.0168	0
bin	0.0169	0
bin	0.017	0
bin	0.0171	0
bin	0.0172	0
bin	0.0173	0
bin	0.0174	0
bin	0.0175	0
bin	0.0176	0
bin	0.0177	0
statistic FatTree_4_seed2_jitter.sink_004.app[0] endToEndDelay:histogram
field count 77
field mean 0.014709298701299
field stddev 0.0013566562616356
field min 0.012086
field max 0.017806
field sum 1.132616
field sqrsum 0.01679986629
attr interpolationmode none
attr source dataAge(packetReceived)
attr title "end-to-end delay, histogram"
attr unit s
bin	-inf	0
bin	0.0106	0
bin	0.0107	0
bin	0.0108	0
bin	0.0109	0
bin	0.011	0
bin	0.0111	0
bin	0.0112	0
bin	0.0113	0
bin	0.0114	0
bin	0.0115	0
bin	0.0116	0
bin	0.0117	0
bin	0.0118	0
bin	0.0119	0
bin	0.012	1
bin	0.0121	0
bin	0.0122	3
bin	0.0123	0
bin	0.0124	0
bin	0.0125	2
bin	0.0126	1
bin	0.0127	0
bin	0.0128	2
bin	0.0129	2
bin	0.013	0
bin	0.0131	2
bin	0.0132	0
bin	0.0133	2
bin	0.0134	0
bin	0.0135	1
bin	0.0136	2
bin	0.0137	0
bin	0.0138	2
bin	0.0139	2
bin	0.014	0
bin	0.0141	3
bin	0.0142	4
bin	0.0143	3
bin	0.0144	3
bin	0.0145	1
bin	0.0146	2
bin	0.0147	2
bin	0.0148	2
bin	0.0149	2
bin	0.015	4
bin	0.0151	4
bin	0.0152	0
bin	0.0153	2
bin	0.0154	1
bin	0.0155	0
bin	0.0156	5
bin	0.0157	3
bin	0.0158	1
bin	0.0159	2
bin	0.016	0
bin	0.0161	1
bin	0.0162	1
bin	0.0163	1
bin	0.0164	0
bin	0.0165	1
bin	0.0166	0
bin	0.0167	0
bin	0.0168	1
bin	0.0169	0
bin	0.017	3
bin	0.0171	0
bin	0.0172	1
bin	0.0173	0
bin	0.0174	0
bin	0.0175	1
bin	0.0176	0
bin	0.0177	0
bin	0.0178	1
bin	0.0179	0
bin	0.018	0
bin	0.0181	0
bin	0.0182	0
bin	0.0183	0
bin	0.0184	0
bin	0.0185	0
bin	0.0186	0
bin	0.0187	0
bin	0.0188	0
bin	0.0189	0
bin	0.019	0
bin	0.0191	0
bin	0.0192	0
bin	0.0193	0
statistic FatTree_4_seed2_jitter.sink_004.app[0] endToEndDelay:weightedHistogram
field count 77
field mean 0.014709298701299
field stddev 0.0013566562616357
field min 0.012086
field max 0.017806
field weights 800800
field weightedSum 11779.2064
field sqrSumWeights 8328320000
field weightedSqrSum 174.718609416
attr interpolationmode none
attr source dataAge(packetReceived)
attr title "end-to-end delay, weightedHistogram"
attr unit s
bin	-inf	0
bin	0.0106	0
bin	0.0107	0
bin	0.0108	0
bin	0.0109	0
bin	0.011	0
bin	0.0111	0
bin	0.0112	0
bin	0.0113	0
bin	0.0114	0
bin	0.0115	0
bin	0.0116	0
bin	0.0117	0
bin	0.0118	0
bin	0.0119	0
bin	0.012	10400
bin	0.0121	0
bin	0.0122	31200
bin	0.0123	0
bin	0.0124	0
bin	0.0125	20800
bin	0.0126	10400
bin	0.0127	0
bin	0.0128	20800
bin	0.0129	20800
bin	0.013	0
bin	0.0131	20800
bin	0.0132	0
bin	0.0133	20800
bin	0.0134	0
bin	0.0135	10400
bin	0.0136	20800
bin	0.0137	0
bin	0.0138	20800
bin	0.0139	20800
bin	0.014	0
bin	0.0141	31200
bin	0.0142	41600
bin	0.0143	31200
bin	0.0144	31200
bin	0.0145	10400
bin	0.0146	20800
bin	0.0147	20800
bin	0.0148	20800
bin	0.0149	20800
bin	0.015	41600
bin	0.0151	41600
bin	0.0152	0
bin	0.0153	20800
bin	0.0154	10400
bin	0.0155	0
bin	0.0156	52000
bin	0.0157	31200
bin	0.0158	10400
bin	0.0159	20800
bin	0.016	0
bin	0.0161	10400
bin	0.0162	10400
bin	0.0163	10400
bin	0.0164	0
bin	0.0165	10400
bin	0.0166	0
bin	0.0167	0
bin	0.0168	10400
bin	0.0169	0
bin	0.017	31200
bin	0.0171	0
bin	0.0172	10400
bin	0.0173	0
bin	0.0174	0
bin	0.0175	10400
bin	0.0176	0
bin	0.0177	0
bin	0.0178	10400
bin	0.0179	0
bin	0.018	0
bin	0.0181	0
bin	0.0182	0
bin	0.0183	0
bin	0.0184	0
bin	0.0185	0
bin	0.0186	0
bin	0.0187	0
bin	0.0188	0
bin	0.0189	0
bin	0.019	0
bin	0.0191	0
bin	0.0192	0
bin	0.0193	0
statistic FatTree_4_seed2_jitter.sink_005.app[0] endToEndDelay:histogram
field count 77
field mean 0.015334753246753
field stddev 0.00118979461027
field min 0.012921
field max 0.01862
field sum 1.180776
field sqrsum 0.018214495052
attr interpolationmode none
attr source dataAge(packetReceived)
attr title "end-to-end delay, histogram"
attr unit s
bin	-inf	0
bin	0.0114	0
bin	0.0115	0
bin	0.0116	0
bin	0.0117	0
bin	0.0118	0
bin	0.0119	0
bin	0.012	0
bin	0.0121	0
bin	0.0122	0
bin	0.0123	0
bin	0.0124	0
bin	0.0125	0
bin	0.0126	0
bin	0.0127	0
bin	0.0128	0
bin	0.0129	2
bin	0.013	1
bin	0.0131	0
bin	0.0132	0
bin	0.0133	0
bin	0.0134	0
bin	0.0135	1
bin	0.0136	2
bin	0.0137	1
bin	0.0138	1
bin	0.0139	0
bin	0.014	1
bin	0.0141	1
bin	0.0142	3
bin	0.0143	6
bin	0.0144	3
bin	0.0145	0
bin	0.0146	1
bin	0.0147	2
bin	0.0148	2
bin	0.0149	4
bin	0.015	4
bin	0.0151	1
bin	0.0152	0
bin	0.0153	3
bin	0.0154	4
bin	0.0155	0
bin	0.0156	11
bin	0.0157	3
bin	0.0158	0
bin	0.0159	0
bin	0.016	2
bin	0.0161	1
bin	0.0162	2
bin	0.0163	1
bin	0.0164	4
bin	0.0165	2
bin	0.0166	0
bin	0.0167	0
bin	0.0168	0
bin	0.0169	1
bin	0.017	3
bin	0.0171	0
bin	0.0172	0
bin	0.0173	0
bin	0.0174	0
bin	0.0175	0
bin	0.0176	0
bin	0.0177	0
bin	0.0178	0
bin	0.0179	0
bin	0.018	2
bin	0.0181	0
bin	0.0182	0
bin	0.0183	1
bin	0.0184	0
bin	0.0185	0
bin	0.0186	1
bin	0.0187	0
bin	0.0188	0
bin	0.0189	0
bin	0.019	0
bin	0.0191	0
bin	0.0192	0
bin	0.0193	0
bin	0.0194	0
bin	0.0195	0
bin	0.0196	0
bin	0.0197	0
bin	0.0198	0
bin	0.0199	0
bin	0.02	0
bin	0.0201	0
statistic FatTree_4_seed2_jitter.sink_005.app[0] endToEndDelay:weightedHistogram
field count 77
field mean 0.015334753246753
field stddev 0.00118979461027
field min 0.012921
field max 0.01862
field weights 800800
field weightedSum 12280.0704
field sqrSumWeights 8328320000
field weightedSqrSum 189.4307485408
attr interpolationmode none
attr source dataAge(packetReceived)
attr title "end-to-end delay, weightedHistogram"
attr unit s
bin	-inf	0
bin	0.0114	0
bin	0.0115	0
bin	0.0116	0
bin	0.0117	0
bin	0.0118	0
bin	0.0119	0
bin	0.012	0
bin	0.0121	0
bin	0.0122	0
bin	0.0123	0
bin	0.0124	0
bin	0.0125	0
bin	0.0126	0
bin	0.0127	0
bin	0.0128	0
bin	0.0129	20800
bin	0.013	10400
bin	0.0131	0
bin	0.0132	0
bin	0.0133	0
bin	0.0134	0
bin	0.0135	10400
bin	0.0136	20800
bin	0.0137	10400
bin	0.0138	10400
bin	0.0139	0
bin	0.014	10400
bin	0.0141	10400
bin	0.0142	31200
bin	0.0143	62400
bin	0.0144	31200
bin	0.0145	0
bin	0.0146	10400
bin	0.0147	20800
bin	0.0148	20800
bin	0.0149	41600
bin	0.015	41600
bin	0.0151	10400
bin	0.0152	0
bin	0.0153	31200
bin	0.0154	41600
bin	0.0155	0
bin	0.0156	114400
bin	0.0157	31200
bin	0.0158	0
bin	0.0159	0
bin	0.016	20800
bin	0.0161	10400
bin	0.0162	20800
bin	0.0163	10400
bin	0.0164	41600
bin	0.0165	20800
bin	0.0166	0
bin	0.0167	0
bin	0.0168	0
bin	0.0169	10400
bin	0.017	31200
bin	0.0171	0
bin	0.0172	0
bin	0.0173	0
bin	0.0174	0
bin	0.0175	0
bin	0.0176	0
bin	0.0177	0
bin	0.0178	0
bin	0.0179	0
bin	0.018	20800
bin	0.0181	0
bin	0.0182	0
bin	0.0183	10400
bin	0.0184	0
bin	0.0185	0
bin	0.0186	10400
bin	0.0187	0
bin	0.0188	0
bin	0.0189	0
bin	0.019	0
bin	0.0191	0
bin	0.0192	0
bin	0.0193	0
bin	0.0194	0
bin	0.0195	0
bin	0.0196	0
bin	0.0197	0
bin	0.0198	0
bin	0.0199	0
bin	0.02	0
bin	0.0201	0
statistic FatTree_4_seed2_jitter.sink_006.app[0] endToEndDelay:histogram
field count 77
field mean 0.015473168831169
field stddev 0.0013024038746487
field min 0.012937
field max 0.020667
field sum 1.191434
field sqrsum 0.018564174878
attr interpolationmode none
attr source dataAge(packetReceived)
attr title "end-to-end delay, histogram"
attr unit s
bin	-inf	0
bin	0.011	0
bin	0.0112	0
bin	0.0114	0
bin	0.0116	0
bin	0.0118	0
bin	0.012	0
bin	0.0122	0
bin	0.0124	0
bin	0.0126	0
bin	0.0128	1
bin	0.013	1
bin	0.0132	0
bin	0.0134	2
bin	0.0136	2
bin	0.0138	3
bin	0.014	0
bin	0.0142	11
bin	0.0144	4
bin	0.0146	2
bin	0.0148	3
bin	0.015	3
bin	0.0152	6
bin	0.0154	4
bin	0.0156	8
bin	0.0158	4
bin	0.016	1
bin	0.0162	4
bin	0.0164	5
bin	0.0166	4
bin	0.0168	1
bin	0.017	2
bin	0.0172	2
bin	0.0174	0
bin	0.0176	0
bin	0.0178	2
bin	0.018	1
bin	0.0182	0
bin	0.0184	0
bin	0.0186	0
bin	0.0188	0
bin	0.019	0
bin	0.0192	0
bin	0.0194	0
bin	0.0196	0
bin	0.0198	0
bin	0.02	0
bin	0.0202	0
bin	0.0204	0
bin	0.0206	1
bin	0.0208	0
bin	0.021	0
bin	0.0212	0
bin	0.0214	0
bin	0.0216	0
bin	0.0218	0
bin	0.022	0
bin	0.0222	0
bin	0.0224	0
bin	0.0226	0
statistic FatTree_4_seed2_jitter.sink_006.app[0] endToEndDelay:weightedHistogram
field count 77
field mean 0.015473168831169
field stddev 0.0013024038746487
field min 0.012937
field max 0.020667
field weights 800800
field weightedSum 12390.9136
field sqrSumWeights 8328320000
field weightedSqrSum 193.0674187312
attr interpolationmode none
attr source dataAge(packetReceived)
attr title "end-to-end delay, weightedHistogram"
attr unit s
bin	-inf	0
bin	0.011	0
bin	0.0112	0
bin	0.0114	0
bin	0.0116	0
bin	0.0118	0
bin	0.012	0
bin	0.0122	0
bin	0.0124	0
bin	0.0126	0
bin	0.0128	10400
bin	0.013	10400
bin	0.0132	0
bin	0.0134	20800
bin	0.0136	20800
bin	0.0138	31200
bin	0.014	0
bin	0.0142	114400
bin	0.0144	41600
bin	0.0146	20800
bin	0.0148	31200
bin	0.015	31200
bin	0.0152	62400
bin	0.0154	41600
bin	0.0156	83200
bin	0.0158	41600
bin	0.016	10400
bin	0.0162	41600
bin	0.0164	52000
bin	0.0166	41600
bin	0.0168	10400
bin	0.017	20800
bin	0.0172	20800
bin	0.0174	0
bin	0.0176	0
bin	0.0178	20800
bin	0.018	10400
bin	0.0182	0
bin	0.0184	0
bin	0.0186	0
bin	0.0188	0
bin	0.019	0
bin	0.0192	0
bin	0.0194	0
bin	0.0196	0
bin	0.0198	0
bin	0.02	0
bin	0.0202	0
bin	0.0204	0
bin	0.0206	10400
bin	0.0208	0
bin	0.021	0
bin	0.0212	0
bin	0.0214	0
bin	0.0216	0
bin	0.0218	0
bin	0.022	0
bin	0.0222	0
bin	0.0224	0
bin	0.0226	0
statistic FatTree_4_seed2_jitter.sink_007.app[0] endToEndDelay:histogram
field count 77
field mean 0.01554387012987
field stddev 0.0014240836421201
field min 0.012589
field max 0.0234
field sum 1.196878
field sqrsum 0.018758245274
attr interpolationmode none
attr source dataAge(packetReceived)
attr title "end-to-end delay, histogram"
attr unit s
bin	-inf	0
bin	0.0098	0
bin	0.01	0
bin	0.0102	0
bin	0.0104	0
bin	0.0106	0
bin	0.0108	0
bin	0.011	0
bin	0.0112	0
bin	0.0114	0
bin	0.0116	0
bin	0.0118	0
bin	0.012	0
bin	0.0122	0
bin	0.0124	1
bin	0.0126	0
bin	0.0128	1
bin	0.013	0
bin	0.0132	0
bin	0.0134	1
bin	0.0136	1
bin	0.0138	2
bin	0.014	3
bin	0.0142	7
bin	0.0144	2
bin	0.0146	1
bin	0.0148	6
bin	0.015	8
bin	0.0152	2
bin	0.0154	8
bin	0.0156	9
bin	0.0158	2
bin	0.016	2
bin	0.0162	6
bin	0.0164	2
bin	0.0166	2
bin	0.0168	3
bin	0.017	1
bin	0.0172	3
bin	0.0174	2
bin	0.0176	1
bin	0.0178	0
bin	0.018	0
bin	0.0182	0
bin	0.0184	0
bin	0.0186	0
bin	0.0188	0
bin	0.019	0
bin	0.0192	0
bin	0.0194	0
bin	0.0196	0
bin	0.0198	0
bin	0.02	0
bin	0.0202	0
bin	0.0204	0
bin	0.0206	0
bin	0.0208	0
bin	0.021	0
bin	0.0212	0
bin	0.0214	0
bin	0.0216	0
bin	0.0218	0
bin	0.022	0
bin	0.0222	0
bin	0.0224	0
bin	0.0226	0
bin	0.0228	0
bin	0.023	0
bin	0.0232	0
bin	0.0234	1
bin	0.0236	0
bin	0.0238	0
bin	0.024	0
bin	0.0242	0
bin	0.0244	0
bin	0.0246	0
bin	0.0248	0
bin	0.025	0
bin	0.0252	0
bin	0.0254	0
bin	0.0256	0
bin	0.0258	0
bin	0.026	0
bin	0.0262	0
statistic FatTree_4_seed2_jitter.sink_007.app[0] endToEndDelay:weightedHistogram
field count 77
field mean 0.01554387012987
field stddev 0.0014240836421201
field min 0.012589
field max 0.0234
field weights 800800
field weightedSum 12447.5312
field sqrSumWeights 8328320000
field weightedSqrSum 195.0857508496
attr interpolationmode none
attr source dataAge(packetReceived)
attr title "end-to-end delay, weightedHistogram"
attr unit s
bin	-inf	0
bin	0.0098	0
bin	0.01	0
bin	0.0102	0
bin	0.0104	0
bin	0.0106	0
bin	0.0108	0
bin	0.011	0
bin	0.0112	0
bin	0.0114	0
bin	0.0116	0
bin	0.0118	0
bin	0.012	0
bin	0.0122	0
bin	0.0124	10400
bin	0.0126	0
bin	0.0128	10400
bin	0.013	0
bin	0.0132	0
bin	0.0134	10400
bin	0.0136	10400
bin	0.0138	20800
bin	0.014	31200
bin	0.0142	72800
bin	0.0144	20800
bin	0.0146	10400
bin	0.0148	62400
bin	0.015	83200
bin	0.0152	20800
bin	0.0154	83200
bin	0.0156	93600
bin	0.0158	20800
bin	0.016	20800
bin	0.0162	62400
bin	0.0164	20800
bin	0.0166	20800
bin	0.0168	31200
bin	0.017	10400
bin	0.0172	31200
bin	0.0174	20800
bin	0.0176	10400
bin	0.0178	0
bin	0.018	0
bin	0.0182	0
bin	0.0184	0
bin	0.0186	0
bin	0.0188	0
bin	0.019	0
bin	0.0192	0
bin	0.0194	0
bin	0.0196	0
bin	0.0198	0
bin	0.02	0
bin	0.0202	0
bin	0.0204	0
bin	0.0206	0
bin	0.0208	0
bin	0.021	0
bin	0.0212	0
bin	0.0214	0
bin	0.0216	0
bin	0.0218	0
bin	0.022	0
bin	0.0222	0
bin	0.0224	0
bin	0.0226	0
bin	0.0228	0
bin	0.023	0
bin	0.0232	0
bin	0.0234	10400
bin	0.0236	0
[...]
bin	0.0078	2
bin	0.008	2
bin	0.0082	6
bin	0.0084	0
bin	0.0086	1
bin	0.0088	2
bin	0.009	0
bin	0.0092	1
bin	0.0094	3
bin	0.0096	1
bin	0.0098	0
bin	0.01	0
bin	0.0102	1
bin	0.0104	0
bin	0.0106	0
bin	0.0108	0
bin	0.011	0
bin	0.0112	0
bin	0.0114	0
bin	0.0116	0
bin	0.0118	0
bin	0.012	0
bin	0.0122	0
bin	0.0124	0
bin	0.0126	0
bin	0.0128	0
statistic FatTree_4_seed2_jitter.source_073.app[0] endToEndDelay:weightedHistogram
field count 77
field mean 0.0066765064935065
field stddev 0.0018833542768672
field min 0.001049
field max 0.010343
field weights 12320
field weightedSum 82.25456
field sqrSumWeights 1971200
field weightedSqrSum 0.59230490768
attr interpolationmode none
attr source dataAge(packetReceived)
attr title "end-to-end delay, weightedHistogram"
attr unit s
bin	-inf	0
bin	0	0
bin	0.0002	0
bin	0.0004	0
bin	0.0006	0
bin	0.0008	0
bin	0.001	320
bin	0.0012	0
bin	0.0014	160
bin	0.0016	160
bin	0.0018	0
bin	0.002	0
bin	0.0022	0
bin	0.0024	0
bin	0.0026	0
bin	0.0028	0
bin	0.003	0
bin	0.0032	0
bin	0.0034	0
bin	0.0036	0
bin	0.0038	0
bin	0.004	160
bin	0.0042	480
bin	0.0044	320
bin	0.0046	160
bin	0.0048	160
bin	0.005	320
bin	0.0052	160
bin	0.0054	320
bin	0.0056	160
bin	0.0058	800
bin	0.006	160
bin	0.0062	480
bin	0.0064	320
bin	0.0066	160
bin	0.0068	1760
bin	0.007	960
bin	0.0072	640
bin	0.0074	800
bin	0.0076	320
bin	0.0078	320
bin	0.008	320
bin	0.0082	960
bin	0.0084	0
bin	0.0086	160
bin	0.0088	320
bin	0.009	0
bin	0.0092	160
bin	0.0094	480
bin	0.0096	160
bin	0.0098	0
bin	0.01	0
bin	0.0102	160
bin	0.0104	0
bin	0.0106	0
bin	0.0108	0
bin	0.011	0
bin	0.0112	0
bin	0.0114	0
bin	0.0116	0
bin	0.0118	0
bin	0.012	0
bin	0.0122	0
bin	0.0124	0
bin	0.0126	0
bin	0.0128	0
scalar FatTree_4_seed2_jitter.source_073.app[0] numActiveSessions:max 1
attr interpolationmode sample-hold
attr source sum(connect)
attr title "number of active sessions, max"
scalar FatTree_4_seed2_jitter.source_073.app[0] numActiveSessions:timeavg 0.001334858
attr interpolationmode sample-hold
attr source sum(connect)
attr title "number of active sessions, timeavg"
statistic FatTree_4_seed2_jitter.source_074.app[0] endToEndDelay:histogram
field count 77
field mean 0.0030268311688312
field stddev 0.0011365119815817
field min 0.001049
field max 0.005251
field sum 0.233066
field sqrsum 0.000803617554
attr interpolationmode none
attr source dataAge(packetReceived)
attr title "end-to-end delay, histogram"
attr unit s
bin	-inf	0
bin	0	0
bin	0.0001	0
bin	0.0002	0
bin	0.0003	0
bin	0.0004	0
bin	0.0005	0
bin	0.0006	0
bin	0.0007	0
bin	0.0008	0
bin	0.0009	0
bin	0.001	5
bin	0.0011	0
bin	0.0012	1
bin	0.0013	0
bin	0.0014	0
bin	0.0015	0
bin	0.0016	4
bin	0.0017	3
bin	0.0018	3
bin	0.0019	2
bin	0.002	1
bin	0.0021	1
bin	0.0022	1
bin	0.0023	3
bin	0.0024	4
bin	0.0025	2
bin	0.0026	4
bin	0.0027	4
bin	0.0028	1
bin	0.0029	1
bin	0.003	1
bin	0.0031	2
bin	0.0032	0
bin	0.0033	4
bin	0.0034	1
bin	0.0035	0
bin	0.0036	4
bin	0.0037	2
bin	0.0038	2
bin	0.0039	1
bin	0.004	4
bin	0.0041	1
bin	0.0042	2
bin	0.0043	3
bin	0.0044	1
bin	0.0045	2
bin	0.0046	2
bin	0.0047	1
bin	0.0048	1
bin	0.0049	1
bin	0.005	0
bin	0.0051	1
bin	0.0052	1
bin	0.0053	0
bin	0.0054	0
bin	0.0055	0
bin	0.0056	0
bin	0.0057	0
bin	0.0058	0
bin	0.0059	0
bin	0.006	0
bin	0.0061	0
bin	0.0062	0
bin	0.0063	0
bin	0.0064	0
statistic FatTree_4_seed2_jitter.source_074.app[0] endToEndDelay:weightedHistogram
field count 77
field mean 0.0030268311688312
field stddev 0.0011365119815818
field min 0.001049
field max 0.005251
field weights 12320
field weightedSum 37.29056
field sqrSumWeights 1971200
field weightedSqrSum 0.12857880864
attr interpolationmode none
attr source dataAge(packetReceived)
attr title "end-to-end delay, weightedHistogram"
attr unit s
bin	-inf	0
bin	0	0
bin	0.0001	0
bin	0.0002	0
bin	0.0003	0
bin	0.0004	0
bin	0.0005	0
bin	0.0006	0
bin	0.0007	0
bin	0.0008	0
bin	0.0009	0
bin	0.001	800
bin	0.0011	0
bin	0.0012	160
bin	0.0013	0
bin	0.0014	0
bin	0.0015	0
bin	0.0016	640
bin	0.0017	480
bin	0.0018	480
bin	0.0019	320
bin	0.002	160
bin	0.0021	160
bin	0.0022	160
bin	0.0023	480
bin	0.0024	640
bin	0.0025	320
bin	0.0026	640
bin	0.0027	640
bin	0.0028	160
bin	0.0029	160
bin	0.003	160
bin	0.0031	320
bin	0.0032	0
bin	0.0033	640
bin	0.0034	160
bin	0.0035	0
bin	0.0036	640
bin	0.0037	320
bin	0.0038	320
bin	0.0039	160
bin	0.004	640
bin	0.0041	160
bin	0.0042	320
bin	0.0043	480
bin	0.0044	160
bin	0.0045	320
bin	0.0046	320
bin	0.0047	160
bin	0.0048	160
bin	0.0049	160
bin	0.005	0
bin	0.0051	160
bin	0.0052	160
bin	0.0053	0
bin	0.0054	0
bin	0.0055	0
bin	0.0056	0
bin	0.0057	0
bin	0.0058	0
bin	0.0059	0
bin	0.006	0
bin	0.0061	0
bin	0.0062	0
bin	0.0063	0
bin	0.0064	0
scalar FatTree_4_seed2_jitter.source_074.app[0] numActiveSessions:max 1
attr interpolationmode sample-hold
attr source sum(connect)
attr title "number of active sessions, max"
scalar FatTree_4_seed2_jitter.source_074.app[0] numActiveSessions:timeavg 0.001118138
attr interpolationmode sample-hold
attr source sum(connect)
attr title "number of active sessions, timeavg"
statistic FatTree_4_seed2_jitter.source_075.app[0] endToEndDelay:histogram
field count 77
field mean 0.0021927142857143
field stddev 0.0010256922291176
field min 0.001049
field max 0.004653
field sum 0.168839
field sqrsum 0.000450171073
attr interpolationmode none
attr source dataAge(packetReceived)
attr title "end-to-end delay, histogram"
attr unit s
bin	-inf	0
bin	0.0001	0
bin	0.0002	0
bin	0.0003	0
bin	0.0004	0
bin	0.0005	0
bin	0.0006	0
bin	0.0007	0
bin	0.0008	0
bin	0.0009	0
bin	0.001	13
bin	0.0011	3
bin	0.0012	2
bin	0.0013	2
bin	0.0014	2
bin	0.0015	4
bin	0.0016	5
bin	0.0017	5
bin	0.0018	4
bin	0.0019	1
bin	0.002	3
bin	0.0021	2
bin	0.0022	1
bin	0.0023	4
bin	0.0024	1
bin	0.0025	1
bin	0.0026	0
bin	0.0027	1
bin	0.0028	1
bin	0.0029	4
bin	0.003	2
bin	0.0031	4
bin	0.0032	0
bin	0.0033	0
bin	0.0034	1
bin	0.0035	3
bin	0.0036	1
bin	0.0037	0
bin	0.0038	0
bin	0.0039	1
bin	0.004	1
bin	0.0041	0
bin	0.0042	1
bin	0.0043	1
bin	0.0044	0
bin	0.0045	1
bin	0.0046	2
bin	0.0047	0
bin	0.0048	0
bin	0.0049	0
bin	0.005	0
bin	0.0051	0
bin	0.0052	0
bin	0.0053	0
bin	0.0054	0
bin	0.0055	0
bin	0.0056	0
statistic FatTree_4_seed2_jitter.source_075.app[0] endToEndDelay:weightedHistogram
field count 77
field mean 0.0021927142857143
field stddev 0.0010256922291176
field min 0.001049
field max 0.004653
field weights 12320
field weightedSum 27.01424
field sqrSumWeights 1971200
field weightedSqrSum 0.07202737168
attr interpolationmode none
attr source dataAge(packetReceived)
attr title "end-to-end delay, weightedHistogram"
attr unit s
bin	-inf	0
bin	0.0001	0
bin	0.0002	0
bin	0.0003	0
bin	0.0004	0
bin	0.0005	0
bin	0.0006	0
bin	0.0007	0
bin	0.0008	0
bin	0.0009	0
bin	0.001	2080
bin	0.0011	480
bin	0.0012	320
bin	0.0013	320
bin	0.0014	320
bin	0.0015	640
bin	0.0016	800
bin	0.0017	800
bin	0.0018	640
bin	0.0019	160
bin	0.002	480
bin	0.0021	320
bin	0.0022	160
bin	0.0023	640
bin	0.0024	160
bin	0.0025	160
bin	0.0026	0
bin	0.0027	160
bin	0.0028	160
bin	0.0029	640
bin	0.003	320
bin	0.0031	640
bin	0.0032	0
bin	0.0033	0
bin	0.0034	160
bin	0.0035	480
bin	0.0036	160
bin	0.0037	0
bin	0.0038	0
bin	0.0039	160
bin	0.004	160
bin	0.0041	0
bin	0.0042	160
bin	0.0043	160
bin	0.0044	0
bin	0.0045	160
bin	0.0046	320
bin	0.0047	0
bin	0.0048	0
bin	0.0049	0
bin	0.005	0
bin	0.0051	0
bin	0.0052	0
bin	0.0053	0
bin	0.0054	0
bin	0.0055	0
bin	0.0056	0
scalar FatTree_4_seed2_jitter.source_075.app[0] numActiveSessions:max 1
attr interpolationmode sample-hold
attr source sum(connect)
attr title "number of active sessions, max"
scalar FatTree_4_seed2_jitter.source_075.app[0] numActiveSessions:timeavg 0.001077923
attr interpolationmode sample-hold
attr source sum(connect)
attr title "number of active sessions, timeavg"
statistic FatTree_4_seed2_jitter.source_076.app[0] endToEndDelay:histogram
field count 77
field mean 0.0030368441558442
field stddev 0.0013995048472579
field min 0.001049
field max 0.006129
field sum 0.233837
field sqrsum 0.000858981177
attr interpolationmode none
attr source dataAge(packetReceived)
attr title "end-to-end delay, histogram"
attr unit s
bin	-inf	0
bin	0	0
bin	0.0001	0
bin	0.0002	0
bin	0.0003	0
bin	0.0004	0
bin	0.0005	0
bin	0.0006	0
bin	0.0007	0
bin	0.0008	0
bin	0.0009	0
bin	0.001	7
bin	0.0011	1
bin	0.0012	1
bin	0.0013	3
bin	0.0014	2
bin	0.0015	4
bin	0.0016	1
bin	0.0017	0
bin	0.0018	1
bin	0.0019	1
bin	0.002	1
bin	0.0021	0
bin	0.0022	4
bin	0.0023	4
bin	0.0024	3
bin	0.0025	2
bin	0.0026	1
bin	0.0027	0
bin	0.0028	2
bin	0.0029	0
bin	0.003	2
bin	0.0031	3
bin	0.0032	3
bin	0.0033	0
bin	0.0034	0
bin	0.0035	1
bin	0.0036	2
bin	0.0037	1
bin	0.0038	2
bin	0.0039	4
bin	0.004	0
bin	0.0041	4
bin	0.0042	2
bin	0.0043	3
bin	0.0044	1
bin	0.0045	0
bin	0.0046	1
bin	0.0047	1
bin	0.0048	1
bin	0.0049	1
bin	0.005	1
bin	0.0051	0
bin	0.0052	0
bin	0.0053	1
bin	0.0054	2
bin	0.0055	0
bin	0.0056	0
bin	0.0057	1
bin	0.0058	0
bin	0.0059	0
bin	0.006	0
bin	0.0061	2
bin	0.0062	0
bin	0.0063	0
bin	0.0064	0
bin	0.0065	0
bin	0.0066	0
bin	0.0067	0
bin	0.0068	0
bin	0.0069	0
bin	0.007	0
bin	0.0071	0
bin	0.0072	0
bin	0.0073	0
bin	0.0074	0
statistic FatTree_4_seed2_jitter.source_076.app[0] endToEndDelay:weightedHistogram
field count 77
field mean 0.0030368441558442
field stddev 0.0013995048472579
field min 0.001049
field max 0.006129
field weights 12320
field weightedSum 37.41392
field sqrSumWeights 1971200
field weightedSqrSum 0.13743698832
attr interpolationmode none
attr source dataAge(packetReceived)
attr title "end-to-end delay, weightedHistogram"
attr unit s
bin	-inf	0
bin	0	0
bin	0.0001	0
bin	0.0002	0
bin	0.0003	0
bin	0.0004	0
bin	0.0005	0
bin	0.0006	0
bin	0.0007	0
bin	0.0008	0
bin	0.0009	0
bin	0.001	1120
bin	0.0011	160
bin	0.0012	160
bin	0.0013	480
bin	0.0014	320
bin	0.0015	640
bin	0.0016	160
bin	0.0017	0
bin	0.0018	160
bin	0.0019	160
bin	0.002	160
bin	0.0021	0
bin	0.0022	640
bin	0.0023	640
bin	0.0024	480
bin	0.0025	320
bin	0.0026	160
bin	0.0027	0
bin	0.0028	320
bin	0.0029	0
bin	0.003	320
bin	0.0031	480
bin	0.0032	480
bin	0.0033	0
bin	0.0034	0
bin	0.0035	160
bin	0.0036	320
bin	0.0037	160
bin	0.0038	320
bin	0.0039	640
bin	0.004	0
bin	0.0041	640
bin	0.0042	320
bin	0.0043	480
bin	0.0044	160
bin	0.0045	0
bin	0.0046	160
bin	0.0047	160
bin	0.0048	160
bin	0.0049	160
bin	0.005	160
bin	0.0051	0
bin	0.0052	0
bin	0.0053	160
bin	0.0054	320
bin	0.0055	0
bin	0.0056	0
bin	0.0057	160
bin	0.0058	0
bin	0.0059	0
bin	0.006	0
bin	0.0061	320
bin	0.0062	0
bin	0.0063	0
bin	0.0064	0
bin	0.0065	0
bin	0.0066	0
bin	0.0067	0
bin	0.0068	0
bin	0.0069	0
bin	0.007	0
bin	0.0071	0
bin	0.0072	0
bin	0.0073	0
bin	0.0074	0
scalar FatTree_4_seed2_jitter.source_076.app[0] numActiveSessions:max 1
attr interpolationmode sample-hold
attr source sum(connect)
attr title "number of active sessions, max"
scalar FatTree_4_seed2_jitter.source_076.app[0] numActiveSessions:timeavg 0.00112335
attr interpolationmode sample-hold
attr source sum(connect)
attr title "number of active sessions, timeavg"
statistic FatTree_4_seed2_jitter.source_077.app[0] endToEndDelay:histogram
field count 77
field mean 0.0024157662337662
field stddev 0.0010147309067213
field min 0.001049
field max 0.004573
field sum 0.186014
field sqrsum 0.00052762193
attr interpolationmode none
attr source dataAge(packetReceived)
attr title "end-to-end delay, histogram"
attr unit s
bin	-inf	0
bin	0.0001	0
bin	0.0002	0
bin	0.0003	0
bin	0.0004	0
bin	0.0005	0
bin	0.0006	0
bin	0.0007	0
bin	0.0008	0
bin	0.0009	0
bin	0.001	9
bin	0.0011	1
bin	0.0012	4
bin	0.0013	1
bin	0.0014	3
bin	0.0015	2
bin	0.0016	5
bin	0.0017	4
bin	0.0018	0
bin	0.0019	0
bin	0.002	2
bin	0.0021	2
bin	0.0022	5
bin	0.0023	6
bin	0.0024	3
bin	0.0025	0
bin	0.0026	0
bin	0.0027	1
bin	0.0028	1
bin	0.0029	4
bin	0.003	5
bin	0.0031	1
bin	0.0032	1
bin	0.0033	3
bin	0.0034	0
bin	0.0035	2
bin	0.0036	3
bin	0.0037	0
bin	0.0038	1
bin	0.0039	1
bin	0.004	2
bin	0.0041	0
bin	0.0042	0
bin	0.0043	3
bin	0.0044	1
bin	0.0045	1
bin	0.0046	0
bin	0.0047	0
bin	0.0048	0
bin	0.0049	0
bin	0.005	0
bin	0.0051	0
bin	0.0052	0
bin	0.0053	0
bin	0.0054	0
bin	0.0055	0
statistic FatTree_4_seed2_jitter.source_077.app[0] endToEndDelay:weightedHistogram
field count 77
field mean 0.0024157662337662
field stddev 0.0010147309067213
field min 0.001049
field max 0.004573
field weights 12320
field weightedSum 29.76224
field sqrSumWeights 1971200
field weightedSqrSum 0.0844195088
attr interpolationmode none
attr source dataAge(packetReceived)
attr title "end-to-end delay, weightedHistogram"
attr unit s
bin	-inf	0
bin	0.0001	0
bin	0.0002	0
bin	0.0003	0
bin	0.0004	0
bin	0.0005	0
bin	0.0006	0
bin	0.0007	0
bin	0.0008	0
bin	0.0009	0
bin	0.001	1440
bin	0.0011	160
bin	0.0012	640
bin	0.0013	160
bin	0.0014	480
bin	0.0015	320
bin	0.0016	800
bin	0.0017	640
bin	0.0018	0
bin	0.0019	0
bin	0.002	320
bin	0.0021	320
bin	0.0022	800
bin	0.0023	960
bin	0.0024	480
bin	0.0025	0
bin	0.0026	0
bin	0.0027	160
bin	0.0028	160
bin	0.0029	640
bin	0.003	800
bin	0.0031	160
bin	0.0032	160
bin	0.0033	480
bin	0.0034	0
bin	0.0035	320
bin	0.0036	480
bin	0.0037	0
bin	0.0038	160
bin	0.0039	160
bin	0.004	320
bin	0.0041	0
bin	0.0042	0
bin	0.0043	480
bin	0.0044	160
bin	0.0045	160
bin	0.0046	0
bin	0.0047	0
bin	0.0048	0
bin	0.0049	0
bin	0.005	0
bin	0.0051	0
bin	0.0052	0
bin	0.0053	0
bin	0.0054	0
bin	0.0055	0
scalar FatTree_4_seed2_jitter.source_077.app[0] numActiveSessions:max 1
attr interpolationmode sample-hold
attr source sum(connect)
attr title "number of active sessions, max"
scalar FatTree_4_seed2_jitter.source_077.app[0] numActiveSessions:timeavg 0.001082997
attr interpolationmode sample-hold
attr source sum(connect)
attr title "number of active sessions, timeavg"
statistic FatTree_4_seed2_jitter.source_078.app[0] endToEndDelay:histogram
field count 77
field mean 0.0029074025974026
field stddev 0.0012856331151753
field min 0.001049
field max 0.00566
field sum 0.22387
field sqrsum 0.00077649701
attr interpolationmode none
attr source dataAge(packetReceived)
attr title "end-to-end delay, histogram"
attr unit s
bin	-inf	0
bin	0	0
bin	0.0001	0
bin	0.0002	0
bin	0.0003	0
bin	0.0004	0
bin	0.0005	0
bin	0.0006	0
bin	0.0007	0
bin	0.0008	0
bin	0.0009	0
bin	0.001	4
bin	0.0011	1
bin	0.0012	1
bin	0.0013	1
bin	0.0014	3
bin	0.0015	2
bin	0.0016	1
bin	0.0017	4
bin	0.0018	4
bin	0.0019	2
bin	0.002	2
bin	0.0021	2
bin	0.0022	3
bin	0.0023	3
bin	0.0024	2
bin	0.0025	2
bin	0.0026	5
bin	0.0027	1
bin	0.0028	0
bin	0.0029	3
bin	0.003	3
bin	0.0031	1
bin	0.0032	2
bin	0.0033	0
bin	0.0034	0
bin	0.0035	1
bin	0.0036	1
bin	0.0037	4
bin	0.0038	1
bin	0.0039	1
bin	0.004	0
bin	0.0041	0
bin	0.0042	1
bin	0.0043	2
bin	0.0044	2
bin	0.0045	1
bin	0.0046	1
bin	0.0047	0
bin	0.0048	3
bin	0.0049	0
bin	0.005	1
bin	0.0051	2
bin	0.0052	1
bin	0.0053	1
bin	0.0054	1
bin	0.0055	0
bin	0.0056	1
bin	0.0057	0
bin	0.0058	0
bin	0.0059	0
bin	0.006	0
bin	0.0061	0
bin	0.0062	0
bin	0.0063	0
bin	0.0064	0
bin	0.0065	0
bin	0.0066	0
bin	0.0067	0
bin	0.0068	0
bin	0.0069	0
statistic FatTree_4_seed2_jitter.source_078.app[0] endToEndDelay:weightedHistogram
field count 77
field mean 0.0029074025974026
field stddev 0.0012856331151753
field min 0.001049
field max 0.00566
field weights 12320
field weightedSum 35.8192
field sqrSumWeights 1971200
field weightedSqrSum 0.1242395216
attr interpolationmode none
attr source dataAge(packetReceived)
attr title "end-to-end delay, weightedHistogram"
attr unit s
bin	-inf	0
bin	0	0
bin	0.0001	0
bin	0.0002	0
bin	0.0003	0
bin	0.0004	0
bin	0.0005	0
bin	0.0006	0
bin	0.0007	0
bin	0.0008	0
bin	0.0009	0
bin	0.001	640
bin	0.0011	160
bin	0.0012	160
bin	0.0013	160
bin	0.0014	480
bin	0.0015	320
bin	0.0016	160
bin	0.0017	640
bin	0.0018	640
bin	0.0019	320
bin	0.002	320
bin	0.0021	320
bin	0.0022	480
bin	0.0023	480
bin	0.0024	320
bin	0.0025	320
bin	0.0026	800
bin	0.0027	160
bin	0.0028	0
bin	0.0029	480
bin	0.003	480
bin	0.0031	160
bin	0.0032	320
bin	0.0033	0
bin	0.0034	0
bin	0.0035	160
bin	0.0036	160
bin	0.0037	640
bin	0.0038	160
bin	0.0039	160
bin	0.004	0
bin	0.0041	0
bin	0.0042	160
bin	0.0043	320
bin	0.0044	320
bin	0.0045	160
bin	0.0046	160
bin	0.0047	0
bin	0.0048	480
bin	0.0049	0
bin	0.005	160
bin	0.0051	320
bin	0.0052	160
bin	0.0053	160
bin	0.0054	160
bin	0.0055	0
bin	0.0056	160
bin	0.0057	0
bin	0.0058	0
bin	0.0059	0
bin	0.006	0
bin	0.0061	0
bin	0.0062	0
bin	0.0063	0
bin	0.0064	0
bin	0.0065	0
bin	0.0066	0
bin	0.0067	0
bin	0.0068	0
bin	0.0069	0
scalar FatTree_4_seed2_jitter.source_078.app[0] numActiveSessions:max 1
attr interpolationmode sample-hold
attr source sum(connect)
attr title "number of active sessions, max"
scalar FatTree_4_seed2_jitter.source_078.app[0] numActiveSessions:timeavg 0.001120728
attr interpolationmode sample-hold
attr source sum(connect)
attr title "number of active sessions, timeavg"
statistic FatTree_4_seed2_jitter.source_079.app[0] endToEndDelay:histogram
field count 77
field mean 0.0028044805194805
field stddev 0.001560703911789
field min 0.001049
field max 0.006989
field sum 0.215945
field sqrsum 0.000790734095
attr interpolationmode none
attr source dataAge(packetReceived)
attr title "end-to-end delay, histogram"
attr unit s
bin	-inf	0
bin	0	0
bin	0.0001	0
bin	0.0002	0
bin	0.0003	0
bin	0.0004	0
bin	0.0005	0
bin	0.0006	0
bin	0.0007	0
bin	0.0008	0
bin	0.0009	0
bin	0.001	13
bin	0.0011	2
bin	0.0012	3
bin	0.0013	3
bin	0.0014	1
bin	0.0015	2
bin	0.0016	2
bin	0.0017	1
bin	0.0018	4
bin	0.0019	1
bin	0.002	2
bin	0.0021	1
bin	0.0022	1
bin	0.0023	0
bin	0.0024	0
bin	0.0025	4
bin	0.0026	0
bin	0.0027	3
bin	0.0028	1
bin	0.0029	1
bin	0.003	2
bin	0.0031	1
bin	0.0032	2
bin	0.0033	0
bin	0.0034	1
bin	0.0035	0
bin	0.0036	2
bin	0.0037	3
bin	0.0038	3
bin	0.0039	0
bin	0.004	1
bin	0.0041	0
bin	0.0042	1
bin	0.0043	1
bin	0.0044	2
bin	0.0045	0
bin	0.0046	1
bin	0.0047	1
bin	0.0048	2
bin	0.0049	1
bin	0.005	1
bin	0.0051	1
bin	0.0052	1
bin	0.0053	1
bin	0.0054	1
bin	0.0055	0
bin	0.0056	0
bin	0.0057	1
bin	0.0058	0
bin	0.0059	0
bin	0.006	0
bin	0.0061	0
bin	0.0062	0
bin	0.0063	0
bin	0.0064	0
bin	0.0065	1
bin	0.0066	0
bin	0.0067	0
bin	0.0068	0
bin	0.0069	1
bin	0.007	0
bin	0.0071	0
bin	0.0072	0
bin	0.0073	0
bin	0.0074	0
bin	0.0075	0
bin	0.0076	0
bin	0.0077	0
bin	0.0078	0
bin	0.0079	0
bin	0.008	0
bin	0.0081	0
bin	0.0082	0
bin	0.0083	0
bin	0.0084	0
bin	0.0085	0
statistic FatTree_4_seed2_jitter.source_079.app[0] endToEndDelay:weightedHistogram
field count 77
field mean 0.0028044805194805
field stddev 0.001560703911789
field min 0.001049
field max 0.006989
field weights 12320
field weightedSum 34.5512
field sqrSumWeights 1971200
field weightedSqrSum 0.1265174552
attr interpolationmode none
attr source dataAge(packetReceived)
attr title "end-to-end delay, weightedHistogram"
attr unit s
bin	-inf	0
bin	0	0
bin	0.0001	0
bin	0.0002	0
bin	0.0003	0
bin	0.0004	0
bin	0.0005	0
bin	0.0006	0
bin	0.0007	0
bin	0.0008	0
bin	0.0009	0
bin	0.001	2080
bin	0.0011	320
bin	0.0012	480
bin	0.0013	480
bin	0.0014	160
bin	0.0015	320
bin	0.0016	320
bin	0.0017	160
bin	0.0018	640
bin	0.0019	160
bin	0.002	320
bin	0.0021	160
bin	0.0022	160
bin	0.0023	0
bin	0.0024	0
bin	0.0025	640
bin	0.0026	0
bin	0.0027	480
bin	0.0028	160
bin	0.0029	160
bin	0.003	320
bin	0.0031	160
bin	0.0032	320
bin	0.0033	0
bin	0.0034	160
bin	0.0035	0
bin	0.0036	320
bin	0.0037	480
bin	0.0038	480
bin	0.0039	0
bin	0.004	160
bin	0.0041	0
bin	0.0042	160
bin	0.0043	160
bin	0.0044	320
bin	0.0045	0
bin	0.0046	160
bin	0.0047	160
bin	0.0048	320
bin	0.0049	160
bin	0.005	160
bin	0.0051	160
bin	0.0052	160
bin	0.0053	160
bin	0.0054	160
bin	0.0055	0
bin	0.0056	0
bin	0.0057	160
bin	0.0058	0
bin	0.0059	0
bin	0.006	0
bin	0.0061	0
bin	0.0062	0
bin	0.0063	0
bin	0.0064	0
bin	0.0065	160
bin	0.0066	0
bin	0.0067	0
bin	0.0068	0
bin	0.0069	160
bin	0.007	0
bin	0.0071	0
bin	0.0072	0
bin	0.0073	0
bin	0.0074	0
bin	0.0075	0
bin	0.0076	0
bin	0.0077	0
bin	0.0078	0
bin	0.0079	0
bin	0.008	0
bin	0.0081	0
bin	0.0082	0
bin	0.0083	0
bin	0.0084	0
bin	0.0085	0
scalar FatTree_4_seed2_jitter.source_079.app[0] numActiveSessions:max 1
attr interpolationmode sample-hold
attr source sum(connect)
attr title "number of active sessions, max"
scalar FatTree_4_seed2_jitter.source_079.app[0] numActiveSessions:timeavg 0.00112843
attr interpolationmode sample-hold
attr source sum(connect)
attr title "number of active sessions, timeavg"

