version 2
run General-0-20220428-01:08:49-22988
attr configname General
attr datetime 20220428-01:08:49
attr experiment General
attr inifile Jellyfish__fvj_dc_big_traffic_seed9.ini
attr iterationvars ""
attr iterationvarsf ""
attr measurement ""
attr network Jellyfish__fvj_dc_big_traffic_seed9
attr processid 22988
attr repetition 0
attr replication #0
attr resultdir results
attr runnumber 0
attr seedset 0
param **.ppp[*].ppp.queue.typename "\"DropTailQueue\""
param **.ppp[*].ppp.queue.packetCapacity 100
param *.configurator.config "xmldoc(\"Jellyfish__fvj_dc_big_traffic_seed9.xml\")"
param **.sink_000.numApps 1
param **.sink_000.app[0].typename "\"TcpGenericServerApp\""
param **.sink_000.app[0].localAddress "\"\""
param **.sink_000.app[0].localPort 1100
param **.sink_000.app[0].replyDelay 0s
param **.sink_001.numApps 1
param **.sink_001.app[0].typename "\"TcpGenericServerApp\""
param **.sink_001.app[0].localAddress "\"\""
param **.sink_001.app[0].localPort 1100
param **.sink_001.app[0].replyDelay 0s
param **.sink_002.numApps 1
param **.sink_002.app[0].typename "\"TcpGenericServerApp\""
param **.sink_002.app[0].localAddress "\"\""
param **.sink_002.app[0].localPort 1100
param **.sink_002.app[0].replyDelay 0s
param **.sink_003.numApps 1
param **.sink_003.app[0].typename "\"TcpGenericServerApp\""
param **.sink_003.app[0].localAddress "\"\""
param **.sink_003.app[0].localPort 1100
param **.sink_003.app[0].replyDelay 0s
param **.sink_004.numApps 1
param **.sink_004.app[0].typename "\"TcpGenericServerApp\""
param **.sink_004.app[0].localAddress "\"\""
param **.sink_004.app[0].localPort 1100
param **.sink_004.app[0].replyDelay 0s
param **.sink_005.numApps 1
param **.sink_005.app[0].typename "\"TcpGenericServerApp\""
param **.sink_005.app[0].localAddress "\"\""
param **.sink_005.app[0].localPort 1100
param **.sink_005.app[0].replyDelay 0s
param **.sink_006.numApps 1
param **.sink_006.app[0].typename "\"TcpGenericServerApp\""
param **.sink_006.app[0].localAddress "\"\""
param **.sink_006.app[0].localPort 1100
param **.sink_006.app[0].replyDelay 0s
param **.sink_007.numApps 1
param **.sink_007.app[0].typename "\"TcpGenericServerApp\""
param **.sink_007.app[0].localAddress "\"\""
param **.sink_007.app[0].localPort 1100
param **.sink_007.app[0].replyDelay 0s
param **.sink_008.numApps 1
param **.sink_008.app[0].typename "\"TcpGenericServerApp\""
param **.sink_008.app[0].localAddress "\"\""
param **.sink_008.app[0].localPort 1100
param **.sink_008.app[0].replyDelay 0s
param **.sink_009.numApps 1
param **.sink_009.app[0].typename "\"TcpGenericServerApp\""
param **.sink_009.app[0].localAddress "\"\""
param **.sink_009.app[0].localPort 1100
param **.sink_009.app[0].replyDelay 0s
param **.sink_010.numApps 1
param **.sink_010.app[0].typename "\"TcpGenericServerApp\""
param **.sink_010.app[0].localAddress "\"\""
param **.sink_010.app[0].localPort 1100
param **.sink_010.app[0].replyDelay 0s
param **.sink_011.numApps 1
param **.sink_011.app[0].typename "\"TcpGenericServerApp\""
param **.sink_011.app[0].localAddress "\"\""
param **.sink_011.app[0].localPort 1100
param **.sink_011.app[0].replyDelay 0s
param **.sink_012.numApps 1
param **.sink_012.app[0].typename "\"TcpGenericServerApp\""
param **.sink_012.app[0].localAddress "\"\""
param **.sink_012.app[0].localPort 1100
param **.sink_012.app[0].replyDelay 0s
param **.sink_013.numApps 1
param **.sink_013.app[0].typename "\"TcpGenericServerApp\""
param **.sink_013.app[0].localAddress "\"\""
param **.sink_013.app[0].localPort 1100
param **.sink_013.app[0].replyDelay 0s
param **.sink_014.numApps 1
param **.sink_014.app[0].typename "\"TcpGenericServerApp\""
param **.sink_014.app[0].localAddress "\"\""
param **.sink_014.app[0].localPort 1100
param **.sink_014.app[0].replyDelay 0s
param **.sink_015.numApps 1
param **.sink_015.app[0].typename "\"TcpGenericServerApp\""
param **.sink_015.app[0].localAddress "\"\""
param **.sink_015.app[0].localPort 1100
param **.sink_015.app[0].replyDelay 0s
param **.sink_016.numApps 1
param **.sink_016.app[0].typename "\"TcpGenericServerApp\""
param **.sink_016.app[0].localAddress "\"\""
param **.sink_016.app[0].localPort 1100
param **.sink_016.app[0].replyDelay 0s
param **.sink_017.numApps 1
param **.sink_017.app[0].typename "\"TcpGenericServerApp\""
param **.sink_017.app[0].localAddress "\"\""
param **.sink_017.app[0].localPort 1100
param **.sink_017.app[0].replyDelay 0s
param **.sink_018.numApps 1
param **.sink_018.app[0].typename "\"TcpGenericServerApp\""
param **.sink_018.app[0].localAddress "\"\""
param **.sink_018.app[0].localPort 1100
param **.sink_018.app[0].replyDelay 0s
param **.sink_019.numApps 1
param **.sink_019.app[0].typename "\"TcpGenericServerApp\""
param **.sink_019.app[0].localAddress "\"\""
param **.sink_019.app[0].localPort 1100
param **.sink_019.app[0].replyDelay 0s
param **.sink_020.numApps 1
param **.sink_020.app[0].typename "\"TcpGenericServerApp\""
param **.sink_020.app[0].localAddress "\"\""
param **.sink_020.app[0].localPort 1100
param **.sink_020.app[0].replyDelay 0s
param **.sink_021.numApps 1
param **.sink_021.app[0].typename "\"TcpGenericServerApp\""
param **.sink_021.app[0].localAddress "\"\""
param **.sink_021.app[0].localPort 1100
param **.sink_021.app[0].replyDelay 0s
param **.sink_022.numApps 1
param **.sink_022.app[0].typename "\"TcpGenericServerApp\""
param **.sink_022.app[0].localAddress "\"\""
param **.sink_022.app[0].localPort 1100
param **.sink_022.app[0].replyDelay 0s
param **.sink_023.numApps 1
param **.sink_023.app[0].typename "\"TcpGenericServerApp\""
param **.sink_023.app[0].localAddress "\"\""
param **.sink_023.app[0].localPort 1100
param **.sink_023.app[0].replyDelay 0s
param **.sink_024.numApps 1
param **.sink_024.app[0].typename "\"TcpGenericServerApp\""
param **.sink_024.app[0].localAddress "\"\""
param **.sink_024.app[0].localPort 1100
param **.sink_024.app[0].replyDelay 0s
param **.sink_025.numApps 1
param **.sink_025.app[0].typename "\"TcpGenericServerApp\""
param **.sink_025.app[0].localAddress "\"\""
param **.sink_025.app[0].localPort 1100
param **.sink_025.app[0].replyDelay 0s
param **.sink_026.numApps 1
param **.sink_026.app[0].typename "\"TcpGenericServerApp\""
param **.sink_026.app[0].localAddress "\"\""
param **.sink_026.app[0].localPort 1100
param **.sink_026.app[0].replyDelay 0s
param **.sink_027.numApps 1
param **.sink_027.app[0].typename "\"TcpGenericServerApp\""
param **.sink_027.app[0].localAddress "\"\""
param **.sink_027.app[0].localPort 1100
param **.sink_027.app[0].replyDelay 0s
param **.sink_028.numApps 1
param **.sink_028.app[0].typename "\"TcpGenericServerApp\""
param **.sink_028.app[0].localAddress "\"\""
param **.sink_028.app[0].localPort 1100
param **.sink_028.app[0].replyDelay 0s
param **.sink_029.numApps 1
param **.sink_029.app[0].typename "\"TcpGenericServerApp\""
param **.sink_029.app[0].localAddress "\"\""
param **.sink_029.app[0].localPort 1100
param **.sink_029.app[0].replyDelay 0s
param **.sink_030.numApps 1
param **.sink_030.app[0].typename "\"TcpGenericServerApp\""
param **.sink_030.app[0].localAddress "\"\""
param **.sink_030.app[0].localPort 1100
param **.sink_030.app[0].replyDelay 0s
param **.sink_031.numApps 1
param **.sink_031.app[0].typename "\"TcpGenericServerApp\""
param **.sink_031.app[0].localAddress "\"\""
param **.sink_031.app[0].localPort 1100
param **.sink_031.app[0].replyDelay 0s
param **.sink_032.numApps 1
param **.sink_032.app[0].typename "\"TcpGenericServerApp\""
param **.sink_032.app[0].localAddress "\"\""
param **.sink_032.app[0].localPort 1100
param **.sink_032.app[0].replyDelay 0s
param **.sink_033.numApps 1
param **.sink_033.app[0].typename "\"TcpGenericServerApp\""
param **.sink_033.app[0].localAddress "\"\""
param **.sink_033.app[0].localPort 1100
param **.sink_033.app[0].replyDelay 0s
param **.sink_034.numApps 1
param **.sink_034.app[0].typename "\"TcpGenericServerApp\""
param **.sink_034.app[0].localAddress "\"\""
param **.sink_034.app[0].localPort 1100
param **.sink_034.app[0].replyDelay 0s
param **.sink_035.numApps 1
param **.sink_035.app[0].typename "\"TcpGenericServerApp\""
param **.sink_035.app[0].localAddress "\"\""
param **.sink_035.app[0].localPort 1100
param **.sink_035.app[0].replyDelay 0s
param **.sink_036.numApps 1
param **.sink_036.app[0].typename "\"TcpGenericServerApp\""
param **.sink_036.app[0].localAddress "\"\""
param **.sink_036.app[0].localPort 1100
param **.sink_036.app[0].replyDelay 0s
param **.sink_037.numApps 1
param **.sink_037.app[0].typename "\"TcpGenericServerApp\""
param **.sink_037.app[0].localAddress "\"\""
param **.sink_037.app[0].localPort 1100
param **.sink_037.app[0].replyDelay 0s
param **.sink_038.numApps 1
param **.sink_038.app[0].typename "\"TcpGenericServerApp\""
param **.sink_038.app[0].localAddress "\"\""
param **.sink_038.app[0].localPort 1100
param **.sink_038.app[0].replyDelay 0s
param **.sink_039.numApps 1
param **.sink_039.app[0].typename "\"TcpGenericServerApp\""
param **.sink_039.app[0].localAddress "\"\""
param **.sink_039.app[0].localPort 1100
param **.sink_039.app[0].replyDelay 0s
param **.sink_040.numApps 1
param **.sink_040.app[0].typename "\"TcpGenericServerApp\""
param **.sink_040.app[0].localAddress "\"\""
param **.sink_040.app[0].localPort 1100
param **.sink_040.app[0].replyDelay 0s
param **.sink_041.numApps 1
param **.sink_041.app[0].typename "\"TcpGenericServerApp\""
param **.sink_041.app[0].localAddress "\"\""
param **.sink_041.app[0].localPort 1100
param **.sink_041.app[0].replyDelay 0s
param **.sink_042.numApps 1
param **.sink_042.app[0].typename "\"TcpGenericServerApp\""
param **.sink_042.app[0].localAddress "\"\""
param **.sink_042.app[0].localPort 1100
param **.sink_042.app[0].replyDelay 0s
param **.sink_043.numApps 1
param **.sink_043.app[0].typename "\"TcpGenericServerApp\""
param **.sink_043.app[0].localAddress "\"\""
param **.sink_043.app[0].localPort 1100
param **.sink_043.app[0].replyDelay 0s
param **.sink_044.numApps 1
param **.sink_044.app[0].typename "\"TcpGenericServerApp\""
param **.sink_044.app[0].localAddress "\"\""
param **.sink_044.app[0].localPort 1100
param **.sink_044.app[0].replyDelay 0s
param **.sink_045.numApps 1
param **.sink_045.app[0].typename "\"TcpGenericServerApp\""
param **.sink_045.app[0].localAddress "\"\""
param **.sink_045.app[0].localPort 1100
param **.sink_045.app[0].replyDelay 0s
param **.sink_046.numApps 1
param **.sink_046.app[0].typename "\"TcpGenericServerApp\""
param **.sink_046.app[0].localAddress "\"\""
param **.sink_046.app[0].localPort 1100
param **.sink_046.app[0].replyDelay 0s
param **.sink_047.numApps 1
param **.sink_047.app[0].typename "\"TcpGenericServerApp\""
param **.sink_047.app[0].localAddress "\"\""
param **.sink_047.app[0].localPort 1100
param **.sink_047.app[0].replyDelay 0s
param **.sink_048.numApps 1
param **.sink_048.app[0].typename "\"TcpGenericServerApp\""
param **.sink_048.app[0].localAddress "\"\""
param **.sink_048.app[0].localPort 1100
param **.sink_048.app[0].replyDelay 0s
param **.sink_049.numApps 1
param **.sink_049.app[0].typename "\"TcpGenericServerApp\""
param **.sink_049.app[0].localAddress "\"\""
param **.sink_049.app[0].localPort 1100
param **.sink_049.app[0].replyDelay 0s
param **.sink_050.numApps 1
param **.sink_050.app[0].typename "\"TcpGenericServerApp\""
param **.sink_050.app[0].localAddress "\"\""
param **.sink_050.app[0].localPort 1100
param **.sink_050.app[0].replyDelay 0s
param **.sink_051.numApps 1
param **.sink_051.app[0].typename "\"TcpGenericServerApp\""
param **.sink_051.app[0].localAddress "\"\""
param **.sink_051.app[0].localPort 1100
param **.sink_051.app[0].replyDelay 0s
param **.sink_052.numApps 1
param **.sink_052.app[0].typename "\"TcpGenericServerApp\""
param **.sink_052.app[0].localAddress "\"\""
param **.sink_052.app[0].localPort 1100
param **.sink_052.app[0].replyDelay 0s
param **.sink_053.numApps 1
param **.sink_053.app[0].typename "\"TcpGenericServerApp\""
param **.sink_053.app[0].localAddress "\"\""
param **.sink_053.app[0].localPort 1100
param **.sink_053.app[0].replyDelay 0s
param **.sink_054.numApps 1
param **.sink_054.app[0].typename "\"TcpGenericServerApp\""
param **.sink_054.app[0].localAddress "\"\""
param **.sink_054.app[0].localPort 1100
param **.sink_054.app[0].replyDelay 0s
param **.sink_055.numApps 1
param **.sink_055.app[0].typename "\"TcpGenericServerApp\""
param **.sink_055.app[0].localAddress "\"\""
param **.sink_055.app[0].localPort 1100
param **.sink_055.app[0].replyDelay 0s
param **.sink_056.numApps 1
param **.sink_056.app[0].typename "\"TcpGenericServerApp\""
param **.sink_056.app[0].localAddress "\"\""
param **.sink_056.app[0].localPort 1100
param **.sink_056.app[0].replyDelay 0s
param **.sink_057.numApps 1
param **.sink_057.app[0].typename "\"TcpGenericServerApp\""
param **.sink_057.app[0].localAddress "\"\""
param **.sink_057.app[0].localPort 1100
param **.sink_057.app[0].replyDelay 0s
param **.sink_058.numApps 1
param **.sink_058.app[0].typename "\"TcpGenericServerApp\""
param **.sink_058.app[0].localAddress "\"\""
param **.sink_058.app[0].localPort 1100
param **.sink_058.app[0].replyDelay 0s
param **.sink_059.numApps 1
param **.sink_059.app[0].typename "\"TcpGenericServerApp\""
param **.sink_059.app[0].localAddress "\"\""
param **.sink_059.app[0].localPort 1100
param **.sink_059.app[0].replyDelay 0s
param **.sink_060.numApps 1
param **.sink_060.app[0].typename "\"TcpGenericServerApp\""
param **.sink_060.app[0].localAddress "\"\""
param **.sink_060.app[0].localPort 1100
param **.sink_060.app[0].replyDelay 0s
param **.sink_061.numApps 1
param **.sink_061.app[0].typename "\"TcpGenericServerApp\""
param **.sink_061.app[0].localAddress "\"\""
param **.sink_061.app[0].localPort 1100
param **.sink_061.app[0].replyDelay 0s
param **.sink_062.numApps 1
param **.sink_062.app[0].typename "\"TcpGenericServerApp\""
param **.sink_062.app[0].localAddress "\"\""
param **.sink_062.app[0].localPort 1100
param **.sink_062.app[0].replyDelay 0s
param **.sink_063.numApps 1
param **.sink_063.app[0].typename "\"TcpGenericServerApp\""
param **.sink_063.app[0].localAddress "\"\""
param **.sink_063.app[0].localPort 1100
param **.sink_063.app[0].replyDelay 0s
param **.sink_064.numApps 1
param **.sink_064.app[0].typename "\"TcpGenericServerApp\""
param **.sink_064.app[0].localAddress "\"\""
param **.sink_064.app[0].localPort 1100
param **.sink_064.app[0].replyDelay 0s
param **.sink_065.numApps 1
param **.sink_065.app[0].typename "\"TcpGenericServerApp\""
param **.sink_065.app[0].localAddress "\"\""
param **.sink_065.app[0].localPort 1100
param **.sink_065.app[0].replyDelay 0s
param **.sink_066.numApps 1
param **.sink_066.app[0].typename "\"TcpGenericServerApp\""
param **.sink_066.app[0].localAddress "\"\""
param **.sink_066.app[0].localPort 1100
param **.sink_066.app[0].replyDelay 0s
param **.sink_067.numApps 1
param **.sink_067.app[0].typename "\"TcpGenericServerApp\""
param **.sink_067.app[0].localAddress "\"\""
param **.sink_067.app[0].localPort 1100
param **.sink_067.app[0].replyDelay 0s
param **.sink_068.numApps 1
param **.sink_068.app[0].typename "\"TcpGenericServerApp\""
param **.sink_068.app[0].localAddress "\"\""
param **.sink_068.app[0].localPort 1100
param **.sink_068.app[0].replyDelay 0s
param **.sink_069.numApps 1
param **.sink_069.app[0].typename "\"TcpGenericServerApp\""
param **.sink_069.app[0].localAddress "\"\""
param **.sink_069.app[0].localPort 1100
param **.sink_069.app[0].replyDelay 0s
param **.sink_070.numApps 1
param **.sink_070.app[0].typename "\"TcpGenericServerApp\""
param **.sink_070.app[0].localAddress "\"\""
param **.sink_070.app[0].localPort 1100
param **.sink_070.app[0].replyDelay 0s
param **.sink_071.numApps 1
param **.sink_071.app[0].typename "\"TcpGenericServerApp\""
param **.sink_071.app[0].localAddress "\"\""
param **.sink_071.app[0].localPort 1100
param **.sink_071.app[0].replyDelay 0s
param **.sink_072.numApps 1
param **.sink_072.app[0].typename "\"TcpGenericServerApp\""
param **.sink_072.app[0].localAddress "\"\""
param **.sink_072.app[0].localPort 1100
param **.sink_072.app[0].replyDelay 0s
param **.sink_073.numApps 1
param **.sink_073.app[0].typename "\"TcpGenericServerApp\""
param **.sink_073.app[0].localAddress "\"\""
param **.sink_073.app[0].localPort 1100
param **.sink_073.app[0].replyDelay 0s
param **.sink_074.numApps 1
param **.sink_074.app[0].typename "\"TcpGenericServerApp\""
param **.sink_074.app[0].localAddress "\"\""
param **.sink_074.app[0].localPort 1100
param **.sink_074.app[0].replyDelay 0s
param **.sink_075.numApps 1
param **.sink_075.app[0].typename "\"TcpGenericServerApp\""
param **.sink_075.app[0].localAddress "\"\""
param **.sink_075.app[0].localPort 1100
param **.sink_075.app[0].replyDelay 0s
param **.sink_076.numApps 1
param **.sink_076.app[0].typename "\"TcpGenericServerApp\""
param **.sink_076.app[0].localAddress "\"\""
param **.sink_076.app[0].localPort 1100
param **.sink_076.app[0].replyDelay 0s
param **.sink_077.numApps 1
param **.sink_077.app[0].typename "\"TcpGenericServerApp\""
param **.sink_077.app[0].localAddress "\"\""
param **.sink_077.app[0].localPort 1100
param **.sink_077.app[0].replyDelay 0s
param **.sink_078.numApps 1
param **.sink_078.app[0].typename "\"TcpGenericServerApp\""
param **.sink_078.app[0].localAddress "\"\""
param **.sink_078.app[0].localPort 1100
param **.sink_078.app[0].replyDelay 0s
param **.sink_079.numApps 1
param **.sink_079.app[0].typename "\"TcpGenericServerApp\""
param **.sink_079.app[0].localAddress "\"\""
param **.sink_079.app[0].localPort 1100
param **.sink_079.app[0].replyDelay 0s
param **.sink_080.numApps 1
param **.sink_080.app[0].typename "\"TcpGenericServerApp\""
param **.sink_080.app[0].localAddress "\"\""
param **.sink_080.app[0].localPort 1100
param **.sink_080.app[0].replyDelay 0s
param **.sink_081.numApps 1
param **.sink_081.app[0].typename "\"TcpGenericServerApp\""
param **.sink_081.app[0].localAddress "\"\""
param **.sink_081.app[0].localPort 1100
param **.sink_081.app[0].replyDelay 0s
param **.sink_082.numApps 1
param **.sink_082.app[0].typename "\"TcpGenericServerApp\""
param **.sink_082.app[0].localAddress "\"\""
param **.sink_082.app[0].localPort 1100
param **.sink_082.app[0].replyDelay 0s
param **.sink_083.numApps 1
param **.sink_083.app[0].typename "\"TcpGenericServerApp\""
param **.sink_083.app[0].localAddress "\"\""
param **.sink_083.app[0].localPort 1100
param **.sink_083.app[0].replyDelay 0s
param **.sink_084.numApps 1
param **.sink_084.app[0].typename "\"TcpGenericServerApp\""
param **.sink_084.app[0].localAddress "\"\""
param **.sink_084.app[0].localPort 1100
param **.sink_084.app[0].replyDelay 0s
param **.sink_085.numApps 1
param **.sink_085.app[0].typename "\"TcpGenericServerApp\""
param **.sink_085.app[0].localAddress "\"\""
param **.sink_085.app[0].localPort 1100
param **.sink_085.app[0].replyDelay 0s
param **.sink_086.numApps 1
param **.sink_086.app[0].typename "\"TcpGenericServerApp\""
param **.sink_086.app[0].localAddress "\"\""
param **.sink_086.app[0].localPort 1100
param **.sink_086.app[0].replyDelay 0s
param **.sink_087.numApps 1
param **.sink_087.app[0].typename "\"TcpGenericServerApp\""
param **.sink_087.app[0].localAddress "\"\""
param **.sink_087.app[0].localPort 1100
param **.sink_087.app[0].replyDelay 0s
param **.sink_088.numApps 1
param **.sink_088.app[0].typename "\"TcpGenericServerApp\""
param **.sink_088.app[0].localAddress "\"\""
param **.sink_088.app[0].localPort 1100
param **.sink_088.app[0].replyDelay 0s
param **.sink_089.numApps 1
param **.sink_089.app[0].typename "\"TcpGenericServerApp\""
param **.sink_089.app[0].localAddress "\"\""
param **.sink_089.app[0].localPort 1100
param **.sink_089.app[0].replyDelay 0s
param **.sink_090.numApps 1
param **.sink_090.app[0].typename "\"TcpGenericServerApp\""
param **.sink_090.app[0].localAddress "\"\""
param **.sink_090.app[0].localPort 1100
param **.sink_090.app[0].replyDelay 0s
param **.sink_091.numApps 1
param **.sink_091.app[0].typename "\"TcpGenericServerApp\""
param **.sink_091.app[0].localAddress "\"\""
param **.sink_091.app[0].localPort 1100
param **.sink_091.app[0].replyDelay 0s
param **.sink_092.numApps 1
param **.sink_092.app[0].typename "\"TcpGenericServerApp\""
param **.sink_092.app[0].localAddress "\"\""
param **.sink_092.app[0].localPort 1100
param **.sink_092.app[0].replyDelay 0s
param **.sink_093.numApps 1
param **.sink_093.app[0].typename "\"TcpGenericServerApp\""
param **.sink_093.app[0].localAddress "\"\""
param **.sink_093.app[0].localPort 1100
param **.sink_093.app[0].replyDelay 0s
param **.sink_094.numApps 1
param **.sink_094.app[0].typename "\"TcpGenericServerApp\""
param **.sink_094.app[0].localAddress "\"\""
param **.sink_094.app[0].localPort 1100
param **.sink_094.app[0].replyDelay 0s
param **.sink_095.numApps 1
param **.sink_095.app[0].typename "\"TcpGenericServerApp\""
param **.sink_095.app[0].localAddress "\"\""
param **.sink_095.app[0].localPort 1100
param **.sink_095.app[0].replyDelay 0s
param **.sink_096.numApps 1
param **.sink_096.app[0].typename "\"TcpGenericServerApp\""
param **.sink_096.app[0].localAddress "\"\""
param **.sink_096.app[0].localPort 1100
param **.sink_096.app[0].replyDelay 0s
param **.sink_097.numApps 1
param **.sink_097.app[0].typename "\"TcpGenericServerApp\""
param **.sink_097.app[0].localAddress "\"\""
param **.sink_097.app[0].localPort 1100
param **.sink_097.app[0].replyDelay 0s
param **.sink_098.numApps 1
param **.sink_098.app[0].typename "\"TcpGenericServerApp\""
param **.sink_098.app[0].localAddress "\"\""
param **.sink_098.app[0].localPort 1100
param **.sink_098.app[0].replyDelay 0s
param **.sink_099.numApps 1
param **.sink_099.app[0].typename "\"TcpGenericServerApp\""
param **.sink_099.app[0].localAddress "\"\""
param **.sink_099.app[0].localPort 1100
param **.sink_099.app[0].replyDelay 0s
param **.sink_100.numApps 1
param **.sink_100.app[0].typename "\"TcpGenericServerApp\""
param **.sink_100.app[0].localAddress "\"\""
param **.sink_100.app[0].localPort 1100
param **.sink_100.app[0].replyDelay 0s
param **.sink_101.numApps 1
param **.sink_101.app[0].typename "\"TcpGenericServerApp\""
param **.sink_101.app[0].localAddress "\"\""
param **.sink_101.app[0].localPort 1100
param **.sink_101.app[0].replyDelay 0s
param **.sink_102.numApps 1
param **.sink_102.app[0].typename "\"TcpGenericServerApp\""
param **.sink_102.app[0].localAddress "\"\""
param **.sink_102.app[0].localPort 1100
param **.sink_102.app[0].replyDelay 0s
param **.sink_103.numApps 1
param **.sink_103.app[0].typename "\"TcpGenericServerApp\""
param **.sink_103.app[0].localAddress "\"\""
param **.sink_103.app[0].localPort 1100
param **.sink_103.app[0].replyDelay 0s
param **.sink_104.numApps 1
param **.sink_104.app[0].typename "\"TcpGenericServerApp\""
param **.sink_104.app[0].localAddress "\"\""
param **.sink_104.app[0].localPort 1100
param **.sink_104.app[0].replyDelay 0s
param **.sink_105.numApps 1
param **.sink_105.app[0].typename "\"TcpGenericServerApp\""
param **.sink_105.app[0].localAddress "\"\""
param **.sink_105.app[0].localPort 1100
param **.sink_105.app[0].replyDelay 0s
param **.sink_106.numApps 1
param **.sink_106.app[0].typename "\"TcpGenericServerApp\""
param **.sink_106.app[0].localAddress "\"\""
param **.sink_106.app[0].localPort 1100
param **.sink_106.app[0].replyDelay 0s
param **.sink_107.numApps 1
param **.sink_107.app[0].typename "\"TcpGenericServerApp\""
param **.sink_107.app[0].localAddress "\"\""
param **.sink_107.app[0].localPort 1100
param **.sink_107.app[0].replyDelay 0s
param **.sink_108.numApps 1
param **.sink_108.app[0].typename "\"TcpGenericServerApp\""
param **.sink_108.app[0].localAddress "\"\""
param **.sink_108.app[0].localPort 1100
param **.sink_108.app[0].replyDelay 0s
param **.sink_109.numApps 1
param **.sink_109.app[0].typename "\"TcpGenericServerApp\""
param **.sink_109.app[0].localAddress "\"\""
param **.sink_109.app[0].localPort 1100
param **.sink_109.app[0].replyDelay 0s
param **.sink_110.numApps 1
param **.sink_110.app[0].typename "\"TcpGenericServerApp\""
param **.sink_110.app[0].localAddress "\"\""
param **.sink_110.app[0].localPort 1100
param **.sink_110.app[0].replyDelay 0s
param **.sink_111.numApps 1
param **.sink_111.app[0].typename "\"TcpGenericServerApp\""
param **.sink_111.app[0].localAddress "\"\""
param **.sink_111.app[0].localPort 1100
param **.sink_111.app[0].replyDelay 0s
param **.sink_112.numApps 1
param **.sink_112.app[0].typename "\"TcpGenericServerApp\""
param **.sink_112.app[0].localAddress "\"\""
param **.sink_112.app[0].localPort 1100
param **.sink_112.app[0].replyDelay 0s
param **.sink_113.numApps 1
param **.sink_113.app[0].typename "\"TcpGenericServerApp\""
param **.sink_113.app[0].localAddress "\"\""
param **.sink_113.app[0].localPort 1100
param **.sink_113.app[0].replyDelay 0s
param **.sink_114.numApps 1
param **.sink_114.app[0].typename "\"TcpGenericServerApp\""
param **.sink_114.app[0].localAddress "\"\""
param **.sink_114.app[0].localPort 1100
param **.sink_114.app[0].replyDelay 0s
param **.sink_115.numApps 1
param **.sink_115.app[0].typename "\"TcpGenericServerApp\""
param **.sink_115.app[0].localAddress "\"\""
param **.sink_115.app[0].localPort 1100
param **.sink_115.app[0].replyDelay 0s
param **.sink_116.numApps 1
param **.sink_116.app[0].typename "\"TcpGenericServerApp\""
param **.sink_116.app[0].localAddress "\"\""
param **.sink_116.app[0].localPort 1100
param **.sink_116.app[0].replyDelay 0s
param **.sink_117.numApps 1
param **.sink_117.app[0].typename "\"TcpGenericServerApp\""
param **.sink_117.app[0].localAddress "\"\""
param **.sink_117.app[0].localPort 1100
param **.sink_117.app[0].replyDelay 0s
param **.sink_118.numApps 1
param **.sink_118.app[0].typename "\"TcpGenericServerApp\""
param **.sink_118.app[0].localAddress "\"\""
param **.sink_118.app[0].localPort 1100
param **.sink_118.app[0].replyDelay 0s
param **.sink_119.numApps 1
param **.sink_119.app[0].typename "\"TcpGenericServerApp\""
param **.sink_119.app[0].localAddress "\"\""
param **.sink_119.app[0].localPort 1100
param **.sink_119.app[0].replyDelay 0s
param **.sink_120.numApps 1
param **.sink_120.app[0].typename "\"TcpGenericServerApp\""
param **.sink_120.app[0].localAddress "\"\""
param **.sink_120.app[0].localPort 1100
param **.sink_120.app[0].replyDelay 0s
param **.sink_121.numApps 1
param **.sink_121.app[0].typename "\"TcpGenericServerApp\""
param **.sink_121.app[0].localAddress "\"\""
param **.sink_121.app[0].localPort 1100
param **.sink_121.app[0].replyDelay 0s
param **.sink_122.numApps 1
param **.sink_122.app[0].typename "\"TcpGenericServerApp\""
param **.sink_122.app[0].localAddress "\"\""
param **.sink_122.app[0].localPort 1100
param **.sink_122.app[0].replyDelay 0s
param **.sink_123.numApps 1
param **.sink_123.app[0].typename "\"TcpGenericServerApp\""
param **.sink_123.app[0].localAddress "\"\""
param **.sink_123.app[0].localPort 1100
param **.sink_123.app[0].replyDelay 0s
param **.sink_124.numApps 1
param **.sink_124.app[0].typename "\"TcpGenericServerApp\""
param **.sink_124.app[0].localAddress "\"\""
param **.sink_124.app[0].localPort 1100
param **.sink_124.app[0].replyDelay 0s
param **.sink_125.numApps 1
param **.sink_125.app[0].typename "\"TcpGenericServerApp\""
param **.sink_125.app[0].localAddress "\"\""
param **.sink_125.app[0].localPort 1100
param **.sink_125.app[0].replyDelay 0s
param **.sink_126.numApps 1
param **.sink_126.app[0].typename "\"TcpGenericServerApp\""
param **.sink_126.app[0].localAddress "\"\""
param **.sink_126.app[0].localPort 1100
param **.sink_126.app[0].replyDelay 0s
param **.sink_127.numApps 1
param **.sink_127.app[0].typename "\"TcpGenericServerApp\""
param **.sink_127.app[0].localAddress "\"\""
param **.sink_127.app[0].localPort 1100
param **.sink_127.app[0].replyDelay 0s
param **.sink_128.numApps 1
param **.sink_128.app[0].typename "\"TcpGenericServerApp\""
param **.sink_128.app[0].localAddress "\"\""
param **.sink_128.app[0].localPort 1100
param **.sink_128.app[0].replyDelay 0s
param **.sink_129.numApps 1
param **.sink_129.app[0].typename "\"TcpGenericServerApp\""
param **.sink_129.app[0].localAddress "\"\""
param **.sink_129.app[0].localPort 1100
param **.sink_129.app[0].replyDelay 0s
param **.sink_130.numApps 1
param **.sink_130.app[0].typename "\"TcpGenericServerApp\""
param **.sink_130.app[0].localAddress "\"\""
param **.sink_130.app[0].localPort 1100
param **.sink_130.app[0].replyDelay 0s
param **.sink_131.numApps 1
param **.sink_131.app[0].typename "\"TcpGenericServerApp\""
param **.sink_131.app[0].localAddress "\"\""
param **.sink_131.app[0].localPort 1100
param **.sink_131.app[0].replyDelay 0s
param **.sink_132.numApps 1
param **.sink_132.app[0].typename "\"TcpGenericServerApp\""
param **.sink_132.app[0].localAddress "\"\""
param **.sink_132.app[0].localPort 1100
param **.sink_132.app[0].replyDelay 0s
param **.sink_133.numApps 1
param **.sink_133.app[0].typename "\"TcpGenericServerApp\""
param **.sink_133.app[0].localAddress "\"\""
param **.sink_133.app[0].localPort 1100
param **.sink_133.app[0].replyDelay 0s
param **.sink_134.numApps 1
param **.sink_134.app[0].typename "\"TcpGenericServerApp\""
param **.sink_134.app[0].localAddress "\"\""
param **.sink_134.app[0].localPort 1100
param **.sink_134.app[0].replyDelay 0s
param **.sink_135.numApps 1
param **.sink_135.app[0].typename "\"TcpGenericServerApp\""
param **.sink_135.app[0].localAddress "\"\""
param **.sink_135.app[0].localPort 1100
param **.sink_135.app[0].replyDelay 0s
param **.sink_136.numApps 1
param **.sink_136.app[0].typename "\"TcpGenericServerApp\""
param **.sink_136.app[0].localAddress "\"\""
param **.sink_136.app[0].localPort 1100
param **.sink_136.app[0].replyDelay 0s
param **.sink_137.numApps 1
param **.sink_137.app[0].typename "\"TcpGenericServerApp\""
param **.sink_137.app[0].localAddress "\"\""
param **.sink_137.app[0].localPort 1100
param **.sink_137.app[0].replyDelay 0s
param **.sink_138.numApps 1
param **.sink_138.app[0].typename "\"TcpGenericServerApp\""
param **.sink_138.app[0].localAddress "\"\""
param **.sink_138.app[0].localPort 1100
param **.sink_138.app[0].replyDelay 0s
param **.sink_139.numApps 1
param **.sink_139.app[0].typename "\"TcpGenericServerApp\""
param **.sink_139.app[0].localAddress "\"\""
param **.sink_139.app[0].localPort 1100
param **.sink_139.app[0].replyDelay 0s
param **.sink_140.numApps 1
param **.sink_140.app[0].typename "\"TcpGenericServerApp\""
param **.sink_140.app[0].localAddress "\"\""
param **.sink_140.app[0].localPort 1100
param **.sink_140.app[0].replyDelay 0s
param **.sink_141.numApps 1
param **.sink_141.app[0].typename "\"TcpGenericServerApp\""
param **.sink_141.app[0].localAddress "\"\""
param **.sink_141.app[0].localPort 1100
param **.sink_141.app[0].replyDelay 0s
param **.sink_142.numApps 1
param **.sink_142.app[0].typename "\"TcpGenericServerApp\""
param **.sink_142.app[0].localAddress "\"\""
param **.sink_142.app[0].localPort 1100
param **.sink_142.app[0].replyDelay 0s
param **.sink_143.numApps 1
param **.sink_143.app[0].typename "\"TcpGenericServerApp\""
param **.sink_143.app[0].localAddress "\"\""
param **.sink_143.app[0].localPort 1100
param **.sink_143.app[0].replyDelay 0s
param **.sink_144.numApps 1
param **.sink_144.app[0].typename "\"TcpGenericServerApp\""
param **.sink_144.app[0].localAddress "\"\""
param **.sink_144.app[0].localPort 1100
param **.sink_144.app[0].replyDelay 0s
param **.sink_145.numApps 1
param **.sink_145.app[0].typename "\"TcpGenericServerApp\""
param **.sink_145.app[0].localAddress "\"\""
param **.sink_145.app[0].localPort 1100
param **.sink_145.app[0].replyDelay 0s
param **.sink_146.numApps 1
param **.sink_146.app[0].typename "\"TcpGenericServerApp\""
param **.sink_146.app[0].localAddress "\"\""
param **.sink_146.app[0].localPort 1100
param **.sink_146.app[0].replyDelay 0s
param **.sink_147.numApps 1
param **.sink_147.app[0].typename "\"TcpGenericServerApp\""
param **.sink_147.app[0].localAddress "\"\""
param **.sink_147.app[0].localPort 1100
param **.sink_147.app[0].replyDelay 0s
param **.sink_148.numApps 1
param **.sink_148.app[0].typename "\"TcpGenericServerApp\""
param **.sink_148.app[0].localAddress "\"\""
param **.sink_148.app[0].localPort 1100
param **.sink_148.app[0].replyDelay 0s
param **.sink_149.numApps 1
param **.sink_149.app[0].typename "\"TcpGenericServerApp\""
param **.sink_149.app[0].localAddress "\"\""
param **.sink_149.app[0].localPort 1100
param **.sink_149.app[0].replyDelay 0s
param **.sink_150.numApps 1
param **.sink_150.app[0].typename "\"TcpGenericServerApp\""
param **.sink_150.app[0].localAddress "\"\""
param **.sink_150.app[0].localPort 1100
param **.sink_150.app[0].replyDelay 0s
param **.sink_151.numApps 1
param **.sink_151.app[0].typename "\"TcpGenericServerApp\""
param **.sink_151.app[0].localAddress "\"\""
param **.sink_151.app[0].localPort 1100
param **.sink_151.app[0].replyDelay 0s
param **.sink_152.numApps 1
param **.sink_152.app[0].typename "\"TcpGenericServerApp\""
param **.sink_152.app[0].localAddress "\"\""
param **.sink_152.app[0].localPort 1100
param **.sink_152.app[0].replyDelay 0s
param **.sink_153.numApps 1
param **.sink_153.app[0].typename "\"TcpGenericServerApp\""
param **.sink_153.app[0].localAddress "\"\""
param **.sink_153.app[0].localPort 1100
param **.sink_153.app[0].replyDelay 0s
param **.sink_154.numApps 1
param **.sink_154.app[0].typename "\"TcpGenericServerApp\""
param **.sink_154.app[0].localAddress "\"\""
param **.sink_154.app[0].localPort 1100
param **.sink_154.app[0].replyDelay 0s
param **.sink_155.numApps 1
param **.sink_155.app[0].typename "\"TcpGenericServerApp\""
param **.sink_155.app[0].localAddress "\"\""
param **.sink_155.app[0].localPort 1100
param **.sink_155.app[0].replyDelay 0s
param **.sink_156.numApps 1
param **.sink_156.app[0].typename "\"TcpGenericServerApp\""
param **.sink_156.app[0].localAddress "\"\""
param **.sink_156.app[0].localPort 1100
param **.sink_156.app[0].replyDelay 0s
param **.sink_157.numApps 1
param **.sink_157.app[0].typename "\"TcpGenericServerApp\""
param **.sink_157.app[0].localAddress "\"\""
param **.sink_157.app[0].localPort 1100
param **.sink_157.app[0].replyDelay 0s
param **.sink_158.numApps 1
param **.sink_158.app[0].typename "\"TcpGenericServerApp\""
param **.sink_158.app[0].localAddress "\"\""
param **.sink_158.app[0].localPort 1100
param **.sink_158.app[0].replyDelay 0s
param **.sink_159.numApps 1
param **.sink_159.app[0].typename "\"TcpGenericServerApp\""
param **.sink_159.app[0].localAddress "\"\""
param **.sink_159.app[0].localPort 1100
param **.sink_159.app[0].replyDelay 0s
param **.sink_160.numApps 1
param **.sink_160.app[0].typename "\"TcpGenericServerApp\""
param **.sink_160.app[0].localAddress "\"\""
param **.sink_160.app[0].localPort 1100
param **.sink_160.app[0].replyDelay 0s
param **.sink_161.numApps 1
param **.sink_161.app[0].typename "\"TcpGenericServerApp\""
param **.sink_161.app[0].localAddress "\"\""
param **.sink_161.app[0].localPort 1100
param **.sink_161.app[0].replyDelay 0s
param **.sink_162.numApps 1
param **.sink_162.app[0].typename "\"TcpGenericServerApp\""
param **.sink_162.app[0].localAddress "\"\""
param **.sink_162.app[0].localPort 1100
param **.sink_162.app[0].replyDelay 0s
param **.sink_163.numApps 1
param **.sink_163.app[0].typename "\"TcpGenericServerApp\""
param **.sink_163.app[0].localAddress "\"\""
param **.sink_163.app[0].localPort 1100
param **.sink_163.app[0].replyDelay 0s
param **.sink_164.numApps 1
param **.sink_164.app[0].typename "\"TcpGenericServerApp\""
param **.sink_164.app[0].localAddress "\"\""
param **.sink_164.app[0].localPort 1100
param **.sink_164.app[0].replyDelay 0s
param **.sink_165.numApps 1
param **.sink_165.app[0].typename "\"TcpGenericServerApp\""
param **.sink_165.app[0].localAddress "\"\""
param **.sink_165.app[0].localPort 1100
param **.sink_165.app[0].replyDelay 0s
param **.sink_166.numApps 1
param **.sink_166.app[0].typename "\"TcpGenericServerApp\""
param **.sink_166.app[0].localAddress "\"\""
param **.sink_166.app[0].localPort 1100
param **.sink_166.app[0].replyDelay 0s
param **.sink_167.numApps 1
param **.sink_167.app[0].typename "\"TcpGenericServerApp\""
param **.sink_167.app[0].localAddress "\"\""
param **.sink_167.app[0].localPort 1100
param **.sink_167.app[0].replyDelay 0s
param **.sink_168.numApps 1
param **.sink_168.app[0].typename "\"TcpGenericServerApp\""
param **.sink_168.app[0].localAddress "\"\""
param **.sink_168.app[0].localPort 1100
param **.sink_168.app[0].replyDelay 0s
param **.sink_169.numApps 1
param **.sink_169.app[0].typename "\"TcpGenericServerApp\""
param **.sink_169.app[0].localAddress "\"\""
param **.sink_169.app[0].localPort 1100
param **.sink_169.app[0].replyDelay 0s
param **.sink_170.numApps 1
param **.sink_170.app[0].typename "\"TcpGenericServerApp\""
param **.sink_170.app[0].localAddress "\"\""
param **.sink_170.app[0].localPort 1100
param **.sink_170.app[0].replyDelay 0s
param **.sink_171.numApps 1
param **.sink_171.app[0].typename "\"TcpGenericServerApp\""
param **.sink_171.app[0].localAddress "\"\""
param **.sink_171.app[0].localPort 1100
param **.sink_171.app[0].replyDelay 0s
param **.sink_172.numApps 1
param **.sink_172.app[0].typename "\"TcpGenericServerApp\""
param **.sink_172.app[0].localAddress "\"\""
param **.sink_172.app[0].localPort 1100
param **.sink_172.app[0].replyDelay 0s
param **.sink_173.numApps 1
param **.sink_173.app[0].typename "\"TcpGenericServerApp\""
param **.sink_173.app[0].localAddress "\"\""
param **.sink_173.app[0].localPort 1100
param **.sink_173.app[0].replyDelay 0s
param **.sink_174.numApps 1
param **.sink_174.app[0].typename "\"TcpGenericServerApp\""
param **.sink_174.app[0].localAddress "\"\""
param **.sink_174.app[0].localPort 1100
param **.sink_174.app[0].replyDelay 0s
param **.sink_175.numApps 1
param **.sink_175.app[0].typename "\"TcpGenericServerApp\""
param **.sink_175.app[0].localAddress "\"\""
param **.sink_175.app[0].localPort 1100
param **.sink_175.app[0].replyDelay 0s
param **.sink_176.numApps 1
param **.sink_176.app[0].typename "\"TcpGenericServerApp\""
param **.sink_176.app[0].localAddress "\"\""
param **.sink_176.app[0].localPort 1100
param **.sink_176.app[0].replyDelay 0s
param **.sink_177.numApps 1
param **.sink_177.app[0].typename "\"TcpGenericServerApp\""
param **.sink_177.app[0].localAddress "\"\""
param **.sink_177.app[0].localPort 1100
param **.sink_177.app[0].replyDelay 0s
param **.sink_178.numApps 1
param **.sink_178.app[0].typename "\"TcpGenericServerApp\""
param **.sink_178.app[0].localAddress "\"\""
param **.sink_178.app[0].localPort 1100
param **.sink_178.app[0].replyDelay 0s
param **.sink_179.numApps 1
param **.sink_179.app[0].typename "\"TcpGenericServerApp\""
param **.sink_179.app[0].localAddress "\"\""
param **.sink_179.app[0].localPort 1100
param **.sink_179.app[0].replyDelay 0s
param **.sink_180.numApps 1
param **.sink_180.app[0].typename "\"TcpGenericServerApp\""
param **.sink_180.app[0].localAddress "\"\""
param **.sink_180.app[0].localPort 1100
param **.sink_180.app[0].replyDelay 0s
param **.sink_181.numApps 1
param **.sink_181.app[0].typename "\"TcpGenericServerApp\""
param **.sink_181.app[0].localAddress "\"\""
param **.sink_181.app[0].localPort 1100
param **.sink_181.app[0].replyDelay 0s
param **.sink_182.numApps 1
param **.sink_182.app[0].typename "\"TcpGenericServerApp\""
param **.sink_182.app[0].localAddress "\"\""
param **.sink_182.app[0].localPort 1100
param **.sink_182.app[0].replyDelay 0s
param **.sink_183.numApps 1
param **.sink_183.app[0].typename "\"TcpGenericServerApp\""
param **.sink_183.app[0].localAddress "\"\""
param **.sink_183.app[0].localPort 1100
param **.sink_183.app[0].replyDelay 0s
param **.sink_184.numApps 1
param **.sink_184.app[0].typename "\"TcpGenericServerApp\""
param **.sink_184.app[0].localAddress "\"\""
param **.sink_184.app[0].localPort 1100
param **.sink_184.app[0].replyDelay 0s
param **.sink_185.numApps 1
param **.sink_185.app[0].typename "\"TcpGenericServerApp\""
param **.sink_185.app[0].localAddress "\"\""
param **.sink_185.app[0].localPort 1100
param **.sink_185.app[0].replyDelay 0s
param **.sink_186.numApps 1
param **.sink_186.app[0].typename "\"TcpGenericServerApp\""
param **.sink_186.app[0].localAddress "\"\""
param **.sink_186.app[0].localPort 1100
param **.sink_186.app[0].replyDelay 0s
param **.sink_187.numApps 1
param **.sink_187.app[0].typename "\"TcpGenericServerApp\""
param **.sink_187.app[0].localAddress "\"\""
param **.sink_187.app[0].localPort 1100
param **.sink_187.app[0].replyDelay 0s
param **.sink_188.numApps 1
param **.sink_188.app[0].typename "\"TcpGenericServerApp\""
param **.sink_188.app[0].localAddress "\"\""
param **.sink_188.app[0].localPort 1100
param **.sink_188.app[0].replyDelay 0s
param **.sink_189.numApps 1
param **.sink_189.app[0].typename "\"TcpGenericServerApp\""
param **.sink_189.app[0].localAddress "\"\""
param **.sink_189.app[0].localPort 1100
param **.sink_189.app[0].replyDelay 0s
param **.sink_190.numApps 1
param **.sink_190.app[0].typename "\"TcpGenericServerApp\""
param **.sink_190.app[0].localAddress "\"\""
param **.sink_190.app[0].localPort 1100
param **.sink_190.app[0].replyDelay 0s
param **.sink_191.numApps 1
param **.sink_191.app[0].typename "\"TcpGenericServerApp\""
param **.sink_191.app[0].localAddress "\"\""
param **.sink_191.app[0].localPort 1100
param **.sink_191.app[0].replyDelay 0s
param **.sink_192.numApps 1
param **.sink_192.app[0].typename "\"TcpGenericServerApp\""
param **.sink_192.app[0].localAddress "\"\""
param **.sink_192.app[0].localPort 1100
param **.sink_192.app[0].replyDelay 0s
param **.sink_193.numApps 1
param **.sink_193.app[0].typename "\"TcpGenericServerApp\""
param **.sink_193.app[0].localAddress "\"\""
param **.sink_193.app[0].localPort 1100
param **.sink_193.app[0].replyDelay 0s
param **.sink_194.numApps 1
param **.sink_194.app[0].typename "\"TcpGenericServerApp\""
param **.sink_194.app[0].localAddress "\"\""
param **.sink_194.app[0].localPort 1100
param **.sink_194.app[0].replyDelay 0s
param **.sink_195.numApps 1
param **.sink_195.app[0].typename "\"TcpGenericServerApp\""
param **.sink_195.app[0].localAddress "\"\""
param **.sink_195.app[0].localPort 1100
param **.sink_195.app[0].replyDelay 0s
param **.sink_196.numApps 1
param **.sink_196.app[0].typename "\"TcpGenericServerApp\""
param **.sink_196.app[0].localAddress "\"\""
param **.sink_196.app[0].localPort 1100
param **.sink_196.app[0].replyDelay 0s
param **.sink_197.numApps 1
param **.sink_197.app[0].typename "\"TcpGenericServerApp\""
param **.sink_197.app[0].localAddress "\"\""
param **.sink_197.app[0].localPort 1100
param **.sink_197.app[0].replyDelay 0s
param **.sink_198.numApps 1
param **.sink_198.app[0].typename "\"TcpGenericServerApp\""
param **.sink_198.app[0].localAddress "\"\""
param **.sink_198.app[0].localPort 1100
param **.sink_198.app[0].replyDelay 0s
param **.sink_199.numApps 1
param **.sink_199.app[0].typename "\"TcpGenericServerApp\""
param **.sink_199.app[0].localAddress "\"\""
param **.sink_199.app[0].localPort 1100
param **.sink_199.app[0].replyDelay 0s
param **.sink_200.numApps 1
param **.sink_200.app[0].typename "\"TcpGenericServerApp\""
param **.sink_200.app[0].localAddress "\"\""
param **.sink_200.app[0].localPort 1100
param **.sink_200.app[0].replyDelay 0s
param **.sink_201.numApps 1
param **.sink_201.app[0].typename "\"TcpGenericServerApp\""
param **.sink_201.app[0].localAddress "\"\""
param **.sink_201.app[0].localPort 1100
param **.sink_201.app[0].replyDelay 0s
param **.sink_202.numApps 1
param **.sink_202.app[0].typename "\"TcpGenericServerApp\""
param **.sink_202.app[0].localAddress "\"\""
param **.sink_202.app[0].localPort 1100
param **.sink_202.app[0].replyDelay 0s
param **.sink_203.numApps 1
param **.sink_203.app[0].typename "\"TcpGenericServerApp\""
param **.sink_203.app[0].localAddress "\"\""
param **.sink_203.app[0].localPort 1100
param **.sink_203.app[0].replyDelay 0s
param **.sink_204.numApps 1
param **.sink_204.app[0].typename "\"TcpGenericServerApp\""
param **.sink_204.app[0].localAddress "\"\""
param **.sink_204.app[0].localPort 1100
param **.sink_204.app[0].replyDelay 0s
param **.sink_205.numApps 1
param **.sink_205.app[0].typename "\"TcpGenericServerApp\""
param **.sink_205.app[0].localAddress "\"\""
param **.sink_205.app[0].localPort 1100
param **.sink_205.app[0].replyDelay 0s
param **.sink_206.numApps 1
param **.sink_206.app[0].typename "\"TcpGenericServerApp\""
param **.sink_206.app[0].localAddress "\"\""
param **.sink_206.app[0].localPort 1100
param **.sink_206.app[0].replyDelay 0s
param **.sink_207.numApps 1
param **.sink_207.app[0].typename "\"TcpGenericServerApp\""
param **.sink_207.app[0].localAddress "\"\""
param **.sink_207.app[0].localPort 1100
param **.sink_207.app[0].replyDelay 0s
param **.sink_208.numApps 1
param **.sink_208.app[0].typename "\"TcpGenericServerApp\""
param **.sink_208.app[0].localAddress "\"\""
param **.sink_208.app[0].localPort 1100
param **.sink_208.app[0].replyDelay 0s
param **.sink_209.numApps 1
param **.sink_209.app[0].typename "\"TcpGenericServerApp\""
param **.sink_209.app[0].localAddress "\"\""
param **.sink_209.app[0].localPort 1100
param **.sink_209.app[0].replyDelay 0s
param **.sink_210.numApps 1
param **.sink_210.app[0].typename "\"TcpGenericServerApp\""
param **.sink_210.app[0].localAddress "\"\""
param **.sink_210.app[0].localPort 1100
param **.sink_210.app[0].replyDelay 0s
param **.sink_211.numApps 1
param **.sink_211.app[0].typename "\"TcpGenericServerApp\""
param **.sink_211.app[0].localAddress "\"\""
param **.sink_211.app[0].localPort 1100
param **.sink_211.app[0].replyDelay 0s
param **.sink_212.numApps 1
param **.sink_212.app[0].typename "\"TcpGenericServerApp\""
param **.sink_212.app[0].localAddress "\"\""
param **.sink_212.app[0].localPort 1100
param **.sink_212.app[0].replyDelay 0s
param **.sink_213.numApps 1
param **.sink_213.app[0].typename "\"TcpGenericServerApp\""
param **.sink_213.app[0].localAddress "\"\""
param **.sink_213.app[0].localPort 1100
param **.sink_213.app[0].replyDelay 0s
param **.sink_214.numApps 1
param **.sink_214.app[0].typename "\"TcpGenericServerApp\""
param **.sink_214.app[0].localAddress "\"\""
param **.sink_214.app[0].localPort 1100
param **.sink_214.app[0].replyDelay 0s
param **.sink_215.numApps 1
param **.sink_215.app[0].typename "\"TcpGenericServerApp\""
param **.sink_215.app[0].localAddress "\"\""
param **.sink_215.app[0].localPort 1100
param **.sink_215.app[0].replyDelay 0s
param **.sink_216.numApps 1
param **.sink_216.app[0].typename "\"TcpGenericServerApp\""
param **.sink_216.app[0].localAddress "\"\""
param **.sink_216.app[0].localPort 1100
param **.sink_216.app[0].replyDelay 0s
param **.sink_217.numApps 1
param **.sink_217.app[0].typename "\"TcpGenericServerApp\""
param **.sink_217.app[0].localAddress "\"\""
param **.sink_217.app[0].localPort 1100
param **.sink_217.app[0].replyDelay 0s
param **.sink_218.numApps 1
param **.sink_218.app[0].typename "\"TcpGenericServerApp\""
param **.sink_218.app[0].localAddress "\"\""
param **.sink_218.app[0].localPort 1100
param **.sink_218.app[0].replyDelay 0s
param **.sink_219.numApps 1
param **.sink_219.app[0].typename "\"TcpGenericServerApp\""
param **.sink_219.app[0].localAddress "\"\""
param **.sink_219.app[0].localPort 1100
param **.sink_219.app[0].replyDelay 0s
param **.sink_220.numApps 1
param **.sink_220.app[0].typename "\"TcpGenericServerApp\""
param **.sink_220.app[0].localAddress "\"\""
param **.sink_220.app[0].localPort 1100
param **.sink_220.app[0].replyDelay 0s
param **.sink_221.numApps 1
param **.sink_221.app[0].typename "\"TcpGenericServerApp\""
param **.sink_221.app[0].localAddress "\"\""
param **.sink_221.app[0].localPort 1100
param **.sink_221.app[0].replyDelay 0s
param **.sink_222.numApps 1
param **.sink_222.app[0].typename "\"TcpGenericServerApp\""
param **.sink_222.app[0].localAddress "\"\""
param **.sink_222.app[0].localPort 1100
param **.sink_222.app[0].replyDelay 0s
param **.sink_223.numApps 1
param **.sink_223.app[0].typename "\"TcpGenericServerApp\""
param **.sink_223.app[0].localAddress "\"\""
param **.sink_223.app[0].localPort 1100
param **.sink_223.app[0].replyDelay 0s
param **.sink_224.numApps 1
param **.sink_224.app[0].typename "\"TcpGenericServerApp\""
param **.sink_224.app[0].localAddress "\"\""
param **.sink_224.app[0].localPort 1100
param **.sink_224.app[0].replyDelay 0s
param **.sink_225.numApps 1
param **.sink_225.app[0].typename "\"TcpGenericServerApp\""
param **.sink_225.app[0].localAddress "\"\""
param **.sink_225.app[0].localPort 1100
param **.sink_225.app[0].replyDelay 0s
param **.sink_226.numApps 1
param **.sink_226.app[0].typename "\"TcpGenericServerApp\""
param **.sink_226.app[0].localAddress "\"\""
param **.sink_226.app[0].localPort 1100
param **.sink_226.app[0].replyDelay 0s
param **.sink_227.numApps 1
param **.sink_227.app[0].typename "\"TcpGenericServerApp\""
param **.sink_227.app[0].localAddress "\"\""
param **.sink_227.app[0].localPort 1100
param **.sink_227.app[0].replyDelay 0s
param **.sink_228.numApps 1
param **.sink_228.app[0].typename "\"TcpGenericServerApp\""
param **.sink_228.app[0].localAddress "\"\""
param **.sink_228.app[0].localPort 1100
param **.sink_228.app[0].replyDelay 0s
param **.sink_229.numApps 1
param **.sink_229.app[0].typename "\"TcpGenericServerApp\""
param **.sink_229.app[0].localAddress "\"\""
param **.sink_229.app[0].localPort 1100
param **.sink_229.app[0].replyDelay 0s
param **.sink_230.numApps 1
param **.sink_230.app[0].typename "\"TcpGenericServerApp\""
param **.sink_230.app[0].localAddress "\"\""
param **.sink_230.app[0].localPort 1100
param **.sink_230.app[0].replyDelay 0s
param **.sink_231.numApps 1
param **.sink_231.app[0].typename "\"TcpGenericServerApp\""
param **.sink_231.app[0].localAddress "\"\""
param **.sink_231.app[0].localPort 1100
param **.sink_231.app[0].replyDelay 0s
param **.sink_232.numApps 1
param **.sink_232.app[0].typename "\"TcpGenericServerApp\""
param **.sink_232.app[0].localAddress "\"\""
param **.sink_232.app[0].localPort 1100
param **.sink_232.app[0].replyDelay 0s
param **.sink_233.numApps 1
param **.sink_233.app[0].typename "\"TcpGenericServerApp\""
param **.sink_233.app[0].localAddress "\"\""
param **.sink_233.app[0].localPort 1100
param **.sink_233.app[0].replyDelay 0s
param **.sink_234.numApps 1
param **.sink_234.app[0].typename "\"TcpGenericServerApp\""
param **.sink_234.app[0].localAddress "\"\""
param **.sink_234.app[0].localPort 1100
param **.sink_234.app[0].replyDelay 0s
param **.sink_235.numApps 1
param **.sink_235.app[0].typename "\"TcpGenericServerApp\""
param **.sink_235.app[0].localAddress "\"\""
param **.sink_235.app[0].localPort 1100
param **.sink_235.app[0].replyDelay 0s
param **.sink_236.numApps 1
param **.sink_236.app[0].typename "\"TcpGenericServerApp\""
param **.sink_236.app[0].localAddress "\"\""
param **.sink_236.app[0].localPort 1100
param **.sink_236.app[0].replyDelay 0s
param **.sink_237.numApps 1
param **.sink_237.app[0].typename "\"TcpGenericServerApp\""
param **.sink_237.app[0].localAddress "\"\""
param **.sink_237.app[0].localPort 1100
param **.sink_237.app[0].replyDelay 0s
param **.sink_238.numApps 1
param **.sink_238.app[0].typename "\"TcpGenericServerApp\""
param **.sink_238.app[0].localAddress "\"\""
param **.sink_238.app[0].localPort 1100
param **.sink_238.app[0].replyDelay 0s
param **.sink_239.numApps 1
param **.sink_239.app[0].typename "\"TcpGenericServerApp\""
param **.sink_239.app[0].localAddress "\"\""
param **.sink_239.app[0].localPort 1100
param **.sink_239.app[0].replyDelay 0s
param **.sink_240.numApps 1
param **.sink_240.app[0].typename "\"TcpGenericServerApp\""
param **.sink_240.app[0].localAddress "\"\""
param **.sink_240.app[0].localPort 1100
param **.sink_240.app[0].replyDelay 0s
param **.sink_241.numApps 1
param **.sink_241.app[0].typename "\"TcpGenericServerApp\""
param **.sink_241.app[0].localAddress "\"\""
param **.sink_241.app[0].localPort 1100
param **.sink_241.app[0].replyDelay 0s
param **.sink_242.numApps 1
param **.sink_242.app[0].typename "\"TcpGenericServerApp\""
param **.sink_242.app[0].localAddress "\"\""
param **.sink_242.app[0].localPort 1100
param **.sink_242.app[0].replyDelay 0s
param **.sink_243.numApps 1
param **.sink_243.app[0].typename "\"TcpGenericServerApp\""
param **.sink_243.app[0].localAddress "\"\""
param **.sink_243.app[0].localPort 1100
param **.sink_243.app[0].replyDelay 0s
param **.sink_244.numApps 1
param **.sink_244.app[0].typename "\"TcpGenericServerApp\""
param **.sink_244.app[0].localAddress "\"\""
param **.sink_244.app[0].localPort 1100
param **.sink_244.app[0].replyDelay 0s
param **.sink_245.numApps 1
param **.sink_245.app[0].typename "\"TcpGenericServerApp\""
param **.sink_245.app[0].localAddress "\"\""
param **.sink_245.app[0].localPort 1100
param **.sink_245.app[0].replyDelay 0s
param **.sink_246.numApps 1
param **.sink_246.app[0].typename "\"TcpGenericServerApp\""
param **.sink_246.app[0].localAddress "\"\""
param **.sink_246.app[0].localPort 1100
param **.sink_246.app[0].replyDelay 0s
param **.sink_247.numApps 1
param **.sink_247.app[0].typename "\"TcpGenericServerApp\""
param **.sink_247.app[0].localAddress "\"\""
param **.sink_247.app[0].localPort 1100
param **.sink_247.app[0].replyDelay 0s
param **.sink_248.numApps 1
param **.sink_248.app[0].typename "\"TcpGenericServerApp\""
param **.sink_248.app[0].localAddress "\"\""
param **.sink_248.app[0].localPort 1100
param **.sink_248.app[0].replyDelay 0s
param **.sink_249.numApps 1
param **.sink_249.app[0].typename "\"TcpGenericServerApp\""
param **.sink_249.app[0].localAddress "\"\""
param **.sink_249.app[0].localPort 1100
param **.sink_249.app[0].replyDelay 0s
param **.sink_250.numApps 1
param **.sink_250.app[0].typename "\"TcpGenericServerApp\""
param **.sink_250.app[0].localAddress "\"\""
param **.sink_250.app[0].localPort 1100
param **.sink_250.app[0].replyDelay 0s
param **.sink_251.numApps 1
param **.sink_251.app[0].typename "\"TcpGenericServerApp\""
param **.sink_251.app[0].localAddress "\"\""
param **.sink_251.app[0].localPort 1100
param **.sink_251.app[0].replyDelay 0s
param **.sink_252.numApps 1
param **.sink_252.app[0].typename "\"TcpGenericServerApp\""
param **.sink_252.app[0].localAddress "\"\""
param **.sink_252.app[0].localPort 1100
param **.sink_252.app[0].replyDelay 0s
param **.sink_253.numApps 1
param **.sink_253.app[0].typename "\"TcpGenericServerApp\""
param **.sink_253.app[0].localAddress "\"\""
param **.sink_253.app[0].localPort 1100
param **.sink_253.app[0].replyDelay 0s
param **.sink_254.numApps 1
param **.sink_254.app[0].typename "\"TcpGenericServerApp\""
param **.sink_254.app[0].localAddress "\"\""
param **.sink_254.app[0].localPort 1100
param **.sink_254.app[0].replyDelay 0s
param **.sink_255.numApps 1
param **.sink_255.app[0].typename "\"TcpGenericServerApp\""
param **.sink_255.app[0].localAddress "\"\""
param **.sink_255.app[0].localPort 1100
param **.sink_255.app[0].replyDelay 0s
param **.sink_256.numApps 1
param **.sink_256.app[0].typename "\"TcpGenericServerApp\""
param **.sink_256.app[0].localAddress "\"\""
param **.sink_256.app[0].localPort 1100
param **.sink_256.app[0].replyDelay 0s
param **.sink_257.numApps 1
param **.sink_257.app[0].typename "\"TcpGenericServerApp\""
param **.sink_257.app[0].localAddress "\"\""
param **.sink_257.app[0].localPort 1100
param **.sink_257.app[0].replyDelay 0s
param **.sink_258.numApps 1
param **.sink_258.app[0].typename "\"TcpGenericServerApp\""
param **.sink_258.app[0].localAddress "\"\""
param **.sink_258.app[0].localPort 1100
param **.sink_258.app[0].replyDelay 0s
param **.sink_259.numApps 1
param **.sink_259.app[0].typename "\"TcpGenericServerApp\""
param **.sink_259.app[0].localAddress "\"\""
param **.sink_259.app[0].localPort 1100
param **.sink_259.app[0].replyDelay 0s
param **.sink_260.numApps 1
param **.sink_260.app[0].typename "\"TcpGenericServerApp\""
param **.sink_260.app[0].localAddress "\"\""
param **.sink_260.app[0].localPort 1100
param **.sink_260.app[0].replyDelay 0s
param **.sink_261.numApps 1
param **.sink_261.app[0].typename "\"TcpGenericServerApp\""
param **.sink_261.app[0].localAddress "\"\""
param **.sink_261.app[0].localPort 1100
param **.sink_261.app[0].replyDelay 0s
param **.sink_262.numApps 1
param **.sink_262.app[0].typename "\"TcpGenericServerApp\""
param **.sink_262.app[0].localAddress "\"\""
param **.sink_262.app[0].localPort 1100
param **.sink_262.app[0].replyDelay 0s
param **.sink_263.numApps 1
param **.sink_263.app[0].typename "\"TcpGenericServerApp\""
param **.sink_263.app[0].localAddress "\"\""
param **.sink_263.app[0].localPort 1100
param **.sink_263.app[0].replyDelay 0s
param **.sink_264.numApps 1
param **.sink_264.app[0].typename "\"TcpGenericServerApp\""
param **.sink_264.app[0].localAddress "\"\""
param **.sink_264.app[0].localPort 1100
param **.sink_264.app[0].replyDelay 0s
param **.sink_265.numApps 1
param **.sink_265.app[0].typename "\"TcpGenericServerApp\""
param **.sink_265.app[0].localAddress "\"\""
param **.sink_265.app[0].localPort 1100
param **.sink_265.app[0].replyDelay 0s
param **.sink_266.numApps 1
param **.sink_266.app[0].typename "\"TcpGenericServerApp\""
param **.sink_266.app[0].localAddress "\"\""
param **.sink_266.app[0].localPort 1100
param **.sink_266.app[0].replyDelay 0s
param **.sink_267.numApps 1
param **.sink_267.app[0].typename "\"TcpGenericServerApp\""
param **.sink_267.app[0].localAddress "\"\""
param **.sink_267.app[0].localPort 1100
param **.sink_267.app[0].replyDelay 0s
param **.sink_268.numApps 1
param **.sink_268.app[0].typename "\"TcpGenericServerApp\""
param **.sink_268.app[0].localAddress "\"\""
param **.sink_268.app[0].localPort 1100
param **.sink_268.app[0].replyDelay 0s
param **.sink_269.numApps 1
param **.sink_269.app[0].typename "\"TcpGenericServerApp\""
param **.sink_269.app[0].localAddress "\"\""
param **.sink_269.app[0].localPort 1100
param **.sink_269.app[0].replyDelay 0s
param **.sink_270.numApps 1
param **.sink_270.app[0].typename "\"TcpGenericServerApp\""
param **.sink_270.app[0].localAddress "\"\""
param **.sink_270.app[0].localPort 1100
param **.sink_270.app[0].replyDelay 0s
param **.sink_271.numApps 1
param **.sink_271.app[0].typename "\"TcpGenericServerApp\""
param **.sink_271.app[0].localAddress "\"\""
param **.sink_271.app[0].localPort 1100
param **.sink_271.app[0].replyDelay 0s
param **.sink_272.numApps 1
param **.sink_272.app[0].typename "\"TcpGenericServerApp\""
param **.sink_272.app[0].localAddress "\"\""
param **.sink_272.app[0].localPort 1100
param **.sink_272.app[0].replyDelay 0s
param **.sink_273.numApps 1
param **.sink_273.app[0].typename "\"TcpGenericServerApp\""
param **.sink_273.app[0].localAddress "\"\""
param **.sink_273.app[0].localPort 1100
param **.sink_273.app[0].replyDelay 0s
param **.sink_274.numApps 1
param **.sink_274.app[0].typename "\"TcpGenericServerApp\""
param **.sink_274.app[0].localAddress "\"\""
param **.sink_274.app[0].localPort 1100
param **.sink_274.app[0].replyDelay 0s
param **.sink_275.numApps 1
param **.sink_275.app[0].typename "\"TcpGenericServerApp\""
param **.sink_275.app[0].localAddress "\"\""
param **.sink_275.app[0].localPort 1100
param **.sink_275.app[0].replyDelay 0s
param **.sink_276.numApps 1
param **.sink_276.app[0].typename "\"TcpGenericServerApp\""
param **.sink_276.app[0].localAddress "\"\""
param **.sink_276.app[0].localPort 1100
param **.sink_276.app[0].replyDelay 0s
param **.sink_277.numApps 1
param **.sink_277.app[0].typename "\"TcpGenericServerApp\""
param **.sink_277.app[0].localAddress "\"\""
param **.sink_277.app[0].localPort 1100
param **.sink_277.app[0].replyDelay 0s
param **.sink_278.numApps 1
param **.sink_278.app[0].typename "\"TcpGenericServerApp\""
param **.sink_278.app[0].localAddress "\"\""
param **.sink_278.app[0].localPort 1100
param **.sink_278.app[0].replyDelay 0s
param **.sink_279.numApps 1
param **.sink_279.app[0].typename "\"TcpGenericServerApp\""
param **.sink_279.app[0].localAddress "\"\""
param **.sink_279.app[0].localPort 1100
param **.sink_279.app[0].replyDelay 0s
param **.sink_280.numApps 1
param **.sink_280.app[0].typename "\"TcpGenericServerApp\""
param **.sink_280.app[0].localAddress "\"\""
param **.sink_280.app[0].localPort 1100
param **.sink_280.app[0].replyDelay 0s
param **.sink_281.numApps 1
param **.sink_281.app[0].typename "\"TcpGenericServerApp\""
param **.sink_281.app[0].localAddress "\"\""
param **.sink_281.app[0].localPort 1100
param **.sink_281.app[0].replyDelay 0s
param **.sink_282.numApps 1
param **.sink_282.app[0].typename "\"TcpGenericServerApp\""
param **.sink_282.app[0].localAddress "\"\""
param **.sink_282.app[0].localPort 1100
param **.sink_282.app[0].replyDelay 0s
param **.sink_283.numApps 1
param **.sink_283.app[0].typename "\"TcpGenericServerApp\""
param **.sink_283.app[0].localAddress "\"\""
param **.sink_283.app[0].localPort 1100
param **.sink_283.app[0].replyDelay 0s
param **.sink_284.numApps 1
param **.sink_284.app[0].typename "\"TcpGenericServerApp\""
param **.sink_284.app[0].localAddress "\"\""
param **.sink_284.app[0].localPort 1100
param **.sink_284.app[0].replyDelay 0s
param **.sink_285.numApps 1
param **.sink_285.app[0].typename "\"TcpGenericServerApp\""
param **.sink_285.app[0].localAddress "\"\""
param **.sink_285.app[0].localPort 1100
param **.sink_285.app[0].replyDelay 0s
param **.sink_286.numApps 1
param **.sink_286.app[0].typename "\"TcpGenericServerApp\""
param **.sink_286.app[0].localAddress "\"\""
param **.sink_286.app[0].localPort 1100
param **.sink_286.app[0].replyDelay 0s
param **.sink_287.numApps 1
param **.sink_287.app[0].typename "\"TcpGenericServerApp\""
param **.sink_287.app[0].localAddress "\"\""
param **.sink_287.app[0].localPort 1100
param **.sink_287.app[0].replyDelay 0s
param **.sink_288.numApps 1
param **.sink_288.app[0].typename "\"TcpGenericServerApp\""
param **.sink_288.app[0].localAddress "\"\""
param **.sink_288.app[0].localPort 1100
param **.sink_288.app[0].replyDelay 0s
param **.sink_289.numApps 1
param **.sink_289.app[0].typename "\"TcpGenericServerApp\""
param **.sink_289.app[0].localAddress "\"\""
param **.sink_289.app[0].localPort 1100
param **.sink_289.app[0].replyDelay 0s
param **.sink_290.numApps 1
param **.sink_290.app[0].typename "\"TcpGenericServerApp\""
param **.sink_290.app[0].localAddress "\"\""
param **.sink_290.app[0].localPort 1100
param **.sink_290.app[0].replyDelay 0s
param **.sink_291.numApps 1
param **.sink_291.app[0].typename "\"TcpGenericServerApp\""
param **.sink_291.app[0].localAddress "\"\""
param **.sink_291.app[0].localPort 1100
param **.sink_291.app[0].replyDelay 0s
param **.sink_292.numApps 1
param **.sink_292.app[0].typename "\"TcpGenericServerApp\""
param **.sink_292.app[0].localAddress "\"\""
param **.sink_292.app[0].localPort 1100
param **.sink_292.app[0].replyDelay 0s
param **.sink_293.numApps 1
param **.sink_293.app[0].typename "\"TcpGenericServerApp\""
param **.sink_293.app[0].localAddress "\"\""
param **.sink_293.app[0].localPort 1100
param **.sink_293.app[0].replyDelay 0s
param **.sink_294.numApps 1
param **.sink_294.app[0].typename "\"TcpGenericServerApp\""
param **.sink_294.app[0].localAddress "\"\""
param **.sink_294.app[0].localPort 1100
param **.sink_294.app[0].replyDelay 0s
param **.sink_295.numApps 1
param **.sink_295.app[0].typename "\"TcpGenericServerApp\""
param **.sink_295.app[0].localAddress "\"\""
param **.sink_295.app[0].localPort 1100
param **.sink_295.app[0].replyDelay 0s
param **.sink_296.numApps 1
param **.sink_296.app[0].typename "\"TcpGenericServerApp\""
param **.sink_296.app[0].localAddress "\"\""
param **.sink_296.app[0].localPort 1100
param **.sink_296.app[0].replyDelay 0s
param **.sink_297.numApps 1
param **.sink_297.app[0].typename "\"TcpGenericServerApp\""
param **.sink_297.app[0].localAddress "\"\""
param **.sink_297.app[0].localPort 1100
param **.sink_297.app[0].replyDelay 0s
param **.sink_298.numApps 1
param **.sink_298.app[0].typename "\"TcpGenericServerApp\""
param **.sink_298.app[0].localAddress "\"\""
param **.sink_298.app[0].localPort 1100
param **.sink_298.app[0].replyDelay 0s
param **.sink_299.numApps 1
param **.sink_299.app[0].typename "\"TcpGenericServerApp\""
param **.sink_299.app[0].localAddress "\"\""
param **.sink_299.app[0].localPort 1100
param **.sink_299.app[0].replyDelay 0s
param **.sink_300.numApps 1
param **.sink_300.app[0].typename "\"TcpGenericServerApp\""
param **.sink_300.app[0].localAddress "\"\""
param **.sink_300.app[0].localPort 1100
param **.sink_300.app[0].replyDelay 0s
param **.sink_301.numApps 1
param **.sink_301.app[0].typename "\"TcpGenericServerApp\""
param **.sink_301.app[0].localAddress "\"\""
param **.sink_301.app[0].localPort 1100
param **.sink_301.app[0].replyDelay 0s
param **.sink_302.numApps 1
param **.sink_302.app[0].typename "\"TcpGenericServerApp\""
param **.sink_302.app[0].localAddress "\"\""
param **.sink_302.app[0].localPort 1100
param **.sink_302.app[0].replyDelay 0s
param **.sink_303.numApps 1
param **.sink_303.app[0].typename "\"TcpGenericServerApp\""
param **.sink_303.app[0].localAddress "\"\""
param **.sink_303.app[0].localPort 1100
param **.sink_303.app[0].replyDelay 0s
param **.sink_304.numApps 1
param **.sink_304.app[0].typename "\"TcpGenericServerApp\""
param **.sink_304.app[0].localAddress "\"\""
param **.sink_304.app[0].localPort 1100
param **.sink_304.app[0].replyDelay 0s
param **.sink_305.numApps 1
param **.sink_305.app[0].typename "\"TcpGenericServerApp\""
param **.sink_305.app[0].localAddress "\"\""
param **.sink_305.app[0].localPort 1100
param **.sink_305.app[0].replyDelay 0s
param **.sink_306.numApps 1
param **.sink_306.app[0].typename "\"TcpGenericServerApp\""
param **.sink_306.app[0].localAddress "\"\""
param **.sink_306.app[0].localPort 1100
param **.sink_306.app[0].replyDelay 0s
param **.sink_307.numApps 1
param **.sink_307.app[0].typename "\"TcpGenericServerApp\""
param **.sink_307.app[0].localAddress "\"\""
param **.sink_307.app[0].localPort 1100
param **.sink_307.app[0].replyDelay 0s
param **.sink_308.numApps 1
param **.sink_308.app[0].typename "\"TcpGenericServerApp\""
param **.sink_308.app[0].localAddress "\"\""
param **.sink_308.app[0].localPort 1100
param **.sink_308.app[0].replyDelay 0s
param **.sink_309.numApps 1
param **.sink_309.app[0].typename "\"TcpGenericServerApp\""
param **.sink_309.app[0].localAddress "\"\""
param **.sink_309.app[0].localPort 1100
param **.sink_309.app[0].replyDelay 0s
param **.sink_310.numApps 1
param **.sink_310.app[0].typename "\"TcpGenericServerApp\""
param **.sink_310.app[0].localAddress "\"\""
param **.sink_310.app[0].localPort 1100
param **.sink_310.app[0].replyDelay 0s
param **.sink_311.numApps 1
param **.sink_311.app[0].typename "\"TcpGenericServerApp\""
param **.sink_311.app[0].localAddress "\"\""
param **.sink_311.app[0].localPort 1100
param **.sink_311.app[0].replyDelay 0s
param **.sink_312.numApps 1
param **.sink_312.app[0].typename "\"TcpGenericServerApp\""
param **.sink_312.app[0].localAddress "\"\""
param **.sink_312.app[0].localPort 1100
param **.sink_312.app[0].replyDelay 0s
param **.sink_313.numApps 1
param **.sink_313.app[0].typename "\"TcpGenericServerApp\""
param **.sink_313.app[0].localAddress "\"\""
param **.sink_313.app[0].localPort 1100
param **.sink_313.app[0].replyDelay 0s
param **.sink_314.numApps 1
param **.sink_314.app[0].typename "\"TcpGenericServerApp\""
param **.sink_314.app[0].localAddress "\"\""
param **.sink_314.app[0].localPort 1100
param **.sink_314.app[0].replyDelay 0s
param **.sink_315.numApps 1
param **.sink_315.app[0].typename "\"TcpGenericServerApp\""
param **.sink_315.app[0].localAddress "\"\""
param **.sink_315.app[0].localPort 1100
param **.sink_315.app[0].replyDelay 0s
param **.sink_316.numApps 1
param **.sink_316.app[0].typename "\"TcpGenericServerApp\""
param **.sink_316.app[0].localAddress "\"\""
param **.sink_316.app[0].localPort 1100
param **.sink_316.app[0].replyDelay 0s
param **.sink_317.numApps 1
param **.sink_317.app[0].typename "\"TcpGenericServerApp\""
param **.sink_317.app[0].localAddress "\"\""
param **.sink_317.app[0].localPort 1100
param **.sink_317.app[0].replyDelay 0s
param **.sink_318.numApps 1
param **.sink_318.app[0].typename "\"TcpGenericServerApp\""
param **.sink_318.app[0].localAddress "\"\""
param **.sink_318.app[0].localPort 1100
param **.sink_318.app[0].replyDelay 0s
param **.sink_319.numApps 1
param **.sink_319.app[0].typename "\"TcpGenericServerApp\""
param **.sink_319.app[0].localAddress "\"\""
param **.sink_319.app[0].localPort 1100
param **.sink_319.app[0].replyDelay 0s
param **.sink_320.numApps 1
param **.sink_320.app[0].typename "\"TcpGenericServerApp\""
param **.sink_320.app[0].localAddress "\"\""
param **.sink_320.app[0].localPort 1100
param **.sink_320.app[0].replyDelay 0s
param **.sink_321.numApps 1
param **.sink_321.app[0].typename "\"TcpGenericServerApp\""
param **.sink_321.app[0].localAddress "\"\""
param **.sink_321.app[0].localPort 1100
param **.sink_321.app[0].replyDelay 0s
param **.sink_322.numApps 1
param **.sink_322.app[0].typename "\"TcpGenericServerApp\""
param **.sink_322.app[0].localAddress "\"\""
param **.sink_322.app[0].localPort 1100
param **.sink_322.app[0].replyDelay 0s
param **.sink_323.numApps 1
param **.sink_323.app[0].typename "\"TcpGenericServerApp\""
param **.sink_323.app[0].localAddress "\"\""
param **.sink_323.app[0].localPort 1100
param **.sink_323.app[0].replyDelay 0s
param **.sink_324.numApps 1
param **.sink_324.app[0].typename "\"TcpGenericServerApp\""
param **.sink_324.app[0].localAddress "\"\""
param **.sink_324.app[0].localPort 1100
param **.sink_324.app[0].replyDelay 0s
param **.sink_325.numApps 1
param **.sink_325.app[0].typename "\"TcpGenericServerApp\""
param **.sink_325.app[0].localAddress "\"\""
param **.sink_325.app[0].localPort 1100
param **.sink_325.app[0].replyDelay 0s
param **.sink_326.numApps 1
param **.sink_326.app[0].typename "\"TcpGenericServerApp\""
param **.sink_326.app[0].localAddress "\"\""
param **.sink_326.app[0].localPort 1100
param **.sink_326.app[0].replyDelay 0s
param **.sink_327.numApps 1
param **.sink_327.app[0].typename "\"TcpGenericServerApp\""
param **.sink_327.app[0].localAddress "\"\""
param **.sink_327.app[0].localPort 1100
param **.sink_327.app[0].replyDelay 0s
param **.sink_328.numApps 1
param **.sink_328.app[0].typename "\"TcpGenericServerApp\""
param **.sink_328.app[0].localAddress "\"\""
param **.sink_328.app[0].localPort 1100
param **.sink_328.app[0].replyDelay 0s
param **.sink_329.numApps 1
param **.sink_329.app[0].typename "\"TcpGenericServerApp\""
param **.sink_329.app[0].localAddress "\"\""
param **.sink_329.app[0].localPort 1100
param **.sink_329.app[0].replyDelay 0s
param **.sink_330.numApps 1
param **.sink_330.app[0].typename "\"TcpGenericServerApp\""
param **.sink_330.app[0].localAddress "\"\""
param **.sink_330.app[0].localPort 1100
param **.sink_330.app[0].replyDelay 0s
param **.sink_331.numApps 1
param **.sink_331.app[0].typename "\"TcpGenericServerApp\""
param **.sink_331.app[0].localAddress "\"\""
param **.sink_331.app[0].localPort 1100
param **.sink_331.app[0].replyDelay 0s
param **.sink_332.numApps 1
param **.sink_332.app[0].typename "\"TcpGenericServerApp\""
param **.sink_332.app[0].localAddress "\"\""
param **.sink_332.app[0].localPort 1100
param **.sink_332.app[0].replyDelay 0s
param **.source_000.numApps 1
param **.source_000.app[0].typename "\"TcpBasicClientApp\""
param **.source_000.app[0].localAddress "\"\""
param **.source_000.app[0].connectAddress "\"sink_000\""
param **.source_000.app[0].connectPort 1100
param **.source_000.app[0].startTime 0s
param **.source_000.app[0].idleInterval 1000s
param **.source_000.app[0].requestLength 1300B
param **.source_000.app[0].replyLength 20B
param **.source_000.app[0].thinkTime 0s
param **.source_000.app[0].numRequestsPerSession 8
param **.source_001.numApps 1
param **.source_001.app[0].typename "\"TcpBasicClientApp\""
param **.source_001.app[0].localAddress "\"\""
param **.source_001.app[0].connectAddress "\"sink_001\""
param **.source_001.app[0].connectPort 1100
param **.source_001.app[0].startTime 0s
param **.source_001.app[0].idleInterval 1000s
param **.source_001.app[0].requestLength 1300B
param **.source_001.app[0].replyLength 20B
param **.source_001.app[0].thinkTime 0s
param **.source_001.app[0].numRequestsPerSession 4
param **.source_002.numApps 1
param **.source_002.app[0].typename "\"TcpBasicClientApp\""
param **.source_002.app[0].localAddress "\"\""
param **.source_002.app[0].connectAddress "\"sink_002\""
param **.source_002.app[0].connectPort 1100
param **.source_002.app[0].startTime 0s
param **.source_002.app[0].idleInterval 1000s
param **.source_002.app[0].requestLength 1300B
param **.source_002.app[0].replyLength 20B
param **.source_002.app[0].thinkTime 0s
param **.source_002.app[0].numRequestsPerSession 8
param **.source_003.numApps 1
param **.source_003.app[0].typename "\"TcpBasicClientApp\""
param **.source_003.app[0].localAddress "\"\""
param **.source_003.app[0].connectAddress "\"sink_003\""
param **.source_003.app[0].connectPort 1100
param **.source_003.app[0].startTime 0s
param **.source_003.app[0].idleInterval 1000s
param **.source_003.app[0].requestLength 1300B
param **.source_003.app[0].replyLength 20B
param **.source_003.app[0].thinkTime 0s
param **.source_003.app[0].numRequestsPerSession 4
param **.source_004.numApps 1
param **.source_004.app[0].typename "\"TcpBasicClientApp\""
param **.source_004.app[0].localAddress "\"\""
param **.source_004.app[0].connectAddress "\"sink_004\""
param **.source_004.app[0].connectPort 1100
param **.source_004.app[0].startTime 0s
param **.source_004.app[0].idleInterval 1000s
param **.source_004.app[0].requestLength 1300B
param **.source_004.app[0].replyLength 20B
param **.source_004.app[0].thinkTime 0s
param **.source_004.app[0].numRequestsPerSession 3
param **.source_005.numApps 1
param **.source_005.app[0].typename "\"TcpBasicClientApp\""
param **.source_005.app[0].localAddress "\"\""
param **.source_005.app[0].connectAddress "\"sink_005\""
param **.source_005.app[0].connectPort 1100
param **.source_005.app[0].startTime 0s
param **.source_005.app[0].idleInterval 1000s
param **.source_005.app[0].requestLength 1300B
param **.source_005.app[0].replyLength 20B
param **.source_005.app[0].thinkTime 0s
param **.source_005.app[0].numRequestsPerSession 3
param **.source_006.numApps 1
param **.source_006.app[0].typename "\"TcpBasicClientApp\""
param **.source_006.app[0].localAddress "\"\""
param **.source_006.app[0].connectAddress "\"sink_006\""
param **.source_006.app[0].connectPort 1100
param **.source_006.app[0].startTime 0s
param **.source_006.app[0].idleInterval 1000s
param **.source_006.app[0].requestLength 1300B
param **.source_006.app[0].replyLength 20B
param **.source_006.app[0].thinkTime 0s
param **.source_006.app[0].numRequestsPerSession 5
param **.source_007.numApps 1
param **.source_007.app[0].typename "\"TcpBasicClientApp\""
param **.source_007.app[0].localAddress "\"\""
param **.source_007.app[0].connectAddress "\"sink_007\""
param **.source_007.app[0].connectPort 1100
param **.source_007.app[0].startTime 0s
param **.source_007.app[0].idleInterval 1000s
param **.source_007.app[0].requestLength 1300B
param **.source_007.app[0].replyLength 20B
param **.source_007.app[0].thinkTime 0s
param **.source_007.app[0].numRequestsPerSession 2
param **.source_008.numApps 1
param **.source_008.app[0].typename "\"TcpBasicClientApp\""
param **.source_008.app[0].localAddress "\"\""
param **.source_008.app[0].connectAddress "\"sink_008\""
param **.source_008.app[0].connectPort 1100
param **.source_008.app[0].startTime 0s
param **.source_008.app[0].idleInterval 1000s
param **.source_008.app[0].requestLength 1300B
param **.source_008.app[0].replyLength 20B
param **.source_008.app[0].thinkTime 0s
param **.source_008.app[0].numRequestsPerSession 34
param **.source_009.numApps 1
param **.source_009.app[0].typename "\"TcpBasicClientApp\""
param **.source_009.app[0].localAddress "\"\""
param **.source_009.app[0].connectAddress "\"sink_009\""
param **.source_009.app[0].connectPort 1100
param **.source_009.app[0].startTime 0s
param **.source_009.app[0].idleInterval 1000s
param **.source_009.app[0].requestLength 1300B
param **.source_009.app[0].replyLength 20B
param **.source_009.app[0].thinkTime 0s
param **.source_009.app[0].numRequestsPerSession 423
param **.source_010.numApps 1
param **.source_010.app[0].typename "\"TcpBasicClientApp\""
param **.source_010.app[0].localAddress "\"\""
param **.source_010.app[0].connectAddress "\"sink_010\""
param **.source_010.app[0].connectPort 1100
param **.source_010.app[0].startTime 0s
param **.source_010.app[0].idleInterval 1000s
param **.source_010.app[0].requestLength 1300B
param **.source_010.app[0].replyLength 20B
param **.source_010.app[0].thinkTime 0s
param **.source_010.app[0].numRequestsPerSession 16
param **.source_011.numApps 1
param **.source_011.app[0].typename "\"TcpBasicClientApp\""
param **.source_011.app[0].localAddress "\"\""
param **.source_011.app[0].connectAddress "\"sink_011\""
param **.source_011.app[0].connectPort 1100
param **.source_011.app[0].startTime 0s
param **.source_011.app[0].idleInterval 1000s
param **.source_011.app[0].requestLength 1300B
param **.source_011.app[0].replyLength 20B
param **.source_011.app[0].thinkTime 0s
param **.source_011.app[0].numRequestsPerSession 40
param **.source_012.numApps 1
param **.source_012.app[0].typename "\"TcpBasicClientApp\""
param **.source_012.app[0].localAddress "\"\""
param **.source_012.app[0].connectAddress "\"sink_012\""
param **.source_012.app[0].connectPort 1100
param **.source_012.app[0].startTime 0s
param **.source_012.app[0].idleInterval 1000s
param **.source_012.app[0].requestLength 1300B
param **.source_012.app[0].replyLength 20B
param **.source_012.app[0].thinkTime 0s
param **.source_012.app[0].numRequestsPerSession 226
param **.source_013.numApps 1
param **.source_013.app[0].typename "\"TcpBasicClientApp\""
param **.source_013.app[0].localAddress "\"\""
param **.source_013.app[0].connectAddress "\"sink_013\""
param **.source_013.app[0].connectPort 1100
param **.source_013.app[0].startTime 0s
param **.source_013.app[0].idleInterval 1000s
param **.source_013.app[0].requestLength 1300B
param **.source_013.app[0].replyLength 20B
param **.source_013.app[0].thinkTime 0s
param **.source_013.app[0].numRequestsPerSession 21
param **.source_014.numApps 1
param **.source_014.app[0].typename "\"TcpBasicClientApp\""
param **.source_014.app[0].localAddress "\"\""
param **.source_014.app[0].connectAddress "\"sink_014\""
param **.source_014.app[0].connectPort 1100
param **.source_014.app[0].startTime 0s
param **.source_014.app[0].idleInterval 1000s
param **.source_014.app[0].requestLength 1300B
param **.source_014.app[0].replyLength 20B
param **.source_014.app[0].thinkTime 0s
param **.source_014.app[0].numRequestsPerSession 269
param **.source_015.numApps 1
param **.source_015.app[0].typename "\"TcpBasicClientApp\""
param **.source_015.app[0].localAddress "\"\""
param **.source_015.app[0].connectAddress "\"sink_015\""
param **.source_015.app[0].connectPort 1100
param **.source_015.app[0].startTime 0s
param **.source_015.app[0].idleInterval 1000s
param **.source_015.app[0].requestLength 1300B
param **.source_015.app[0].replyLength 20B
param **.source_015.app[0].thinkTime 0s
param **.source_015.app[0].numRequestsPerSession 1
param **.source_016.numApps 1
param **.source_016.app[0].typename "\"TcpBasicClientApp\""
param **.source_016.app[0].localAddress "\"\""
param **.source_016.app[0].connectAddress "\"sink_016\""
param **.source_016.app[0].connectPort 1100
param **.source_016.app[0].startTime 0s
param **.source_016.app[0].idleInterval 1000s
param **.source_016.app[0].requestLength 1300B
param **.source_016.app[0].replyLength 20B
param **.source_016.app[0].thinkTime 0s
param **.source_016.app[0].numRequestsPerSession 6
param **.source_017.numApps 1
param **.source_017.app[0].typename "\"TcpBasicClientApp\""
param **.source_017.app[0].localAddress "\"\""
param **.source_017.app[0].connectAddress "\"sink_017\""
[...]
968	566246	0.317263	0.018769
968	594228	0.335573	0.017261
968	619104	0.352395	0.015706
968	642318	0.367917	0.013385
968	662028	0.381857	0.012165
968	681607	0.395797	0.012891
968	701292	0.409737	0.012891
968	720578	0.423677	0.011799
968	742193	0.439429	0.014703
968	761590	0.453741	0.012447
968	780850	0.467728	0.011618
968	799532	0.481026	0.012249
968	819745	0.49636	0.014285
968	837263	0.508906	0.010784
968	856081	0.523091	0.011878
968	872960	0.535574	0.011434
968	889746	0.548191	0.011568
969	101743	0.047654	0.001566
969	183701	0.090452	0.002103
969	251857	0.127122	0.002294
969	313255	0.162422	0.001068
969	369954	0.196029	0.001078
969	423068	0.227905	0.002098
969	472213	0.258059	0.001537
969	525407	0.291215	0.001049
969	565597	0.316835	0.003848
969	592248	0.334334	0.001549
969	617129	0.350894	0.001287
969	639574	0.366084	0.001049
969	662647	0.382256	0.001793
969	685322	0.398287	0.001049
969	708870	0.414968	0.001096
969	730331	0.430673	0.001049
969	755498	0.44912	0.001049
969	773794	0.462497	0.001786
969	796027	0.478581	0.001095
969	815874	0.493227	0.001049
969	832945	0.505773	0.001049
969	852156	0.519989	0.001194
969	867805	0.531507	0.001305
969	881663	0.542166	0.001049
969	898824	0.554836	0.001049
969	911336	0.564614	0.001049
969	927733	0.57718	0.001049
969	941292	0.588026	0.001049
969	959491	0.602916	0.002187
969	975654	0.615785	0.001049
969	991108	0.628079	0.002363
969	1003329	0.637857	0.001049
969	1017724	0.649123	0.001049
969	1032927	0.661429	0.001049
969	1047864	0.674255	0.001049
969	1061893	0.68644	0.001049
969	1077045	0.699786	0.002367
969	1091838	0.712352	0.001049
969	1104761	0.723973	0.001327
969	1118308	0.735849	0.002176
969	1131098	0.747168	0.001575
969	1142564	0.757184	0.001049
969	1154403	0.768357	0.001049
969	1165942	0.779643	0.001049
969	1175977	0.789421	0.001049
969	1188294	0.801176	0.001049
969	1200654	0.812995	0.001049
969	1212436	0.824234	0.001049
969	1223488	0.835269	0.001347
969	1235043	0.846362	0.001049
969	1245047	0.856658	0.001049
969	1256670	0.867967	0.001049
969	1267758	0.879059	0.001049
969	1279352	0.890544	0.001049
969	1290178	0.901602	0.001049
969	1299707	0.91138	0.001049
969	1309398	0.921158	0.001049
969	1320292	0.932692	0.001049
969	1329237	0.942484	0.001049
969	1338922	0.953159	0.001049
969	1349472	0.964446	0.001049
969	1359972	0.975607	0.001049
969	1368353	0.985464	0.001088
969	1378458	0.996442	0.001049
969	1388085	1.007681	0.001049
970	101839	0.047707	0.011292
970	156370	0.075725	0.003503
970	221720	0.11084	0.00601
970	267816	0.136249	0.002391
970	309526	0.160297	0.002631
970	349402	0.183918	0.003806
971	102496	0.048047	0.009855
971	201231	0.099933	0.016945
971	279950	0.143351	0.013484
971	343795	0.180561	0.012962
971	397589	0.21245	0.010567
971	445116	0.241222	0.009857
971	489587	0.26905	0.00697
971	533542	0.296314	0.006354
971	569916	0.319436	0.003959
971	609178	0.345306	0.003863
971	650852	0.373937	0.006008
971	683705	0.397293	0.002737
971	713667	0.41866	0.004588
971	745539	0.442307	0.005383
971	776401	0.464388	0.004932
971	807425	0.487274	0.004331
971	833017	0.505817	0.004705
971	862116	0.527317	0.006642
971	888394	0.54731	0.003084
971	916012	0.568156	0.002228
971	938530	0.58594	0.001843
971	963820	0.606443	0.003178
971	990520	0.627572	0.002337
971	1012791	0.645201	0.003097
971	1030063	0.658759	0.002217
971	1051095	0.676968	0.004269
971	1068537	0.692217	0.003186
971	1084938	0.70657	0.001673
971	1104332	0.72357	0.003759
971	1118567	0.736034	0.00264
971	1133663	0.749525	0.002238
971	1148229	0.762827	0.001526
971	1165106	0.77893	0.004811
971	1180577	0.793451	0.003951
971	1196072	0.808159	0.002158
971	1207854	0.819598	0.002455
971	1222026	0.833746	0.001609
971	1234466	0.845877	0.003402
971	1248536	0.859773	0.001332
971	1260665	0.871769	0.000882
971	1275460	0.886432	0.001925
971	1285980	0.896997	0.001836
971	1296371	0.907677	0.001789
971	1307200	0.918775	0.000882
971	1317149	0.929028	0.000882
971	1327616	0.940133	0.000882
971	1338365	0.952485	0.000882
971	1348610	0.963689	0.000882
971	1358254	0.974077	0.000882
971	1367737	0.984837	0.000882
971	1376470	0.994615	0.000882
971	1385169	1.004454	0.000943
971	1393650	1.014309	0.00091
971	1402670	1.025192	0.000882
971	1411710	1.036228	0.000882
971	1419784	1.0461	0.000882
971	1427675	1.055891	0.000882
971	1437287	1.068141	0.000882
971	1444567	1.077759	0.000889
971	1452366	1.087537	0.000945
971	1462185	1.099779	0.000882
971	1470671	1.110705	0.000889
971	1477812	1.120356	0.000882
971	1485520	1.130227	0.000882
971	1494205	1.141185	0.000882
971	1503439	1.152418	0.000882
971	1513382	1.165469	0.001873
971	1520569	1.17508	0.000882
971	1528447	1.184981	0.000882
971	1538110	1.197565	0.000882
971	1545352	1.207176	0.000882
971	1552329	1.216787	0.000882
971	1559890	1.227282	0.000882
971	1567977	1.238421	0.000896
971	1575672	1.249384	0.000889
971	1583805	1.261173	0.001905
971	1591801	1.272179	0.000983
971	1599738	1.284101	0.000882
971	1606687	1.293792	0.000882
971	1613497	1.303403	0.000882
971	1619952	1.313092	0.000882
971	1627409	1.323634	0.000929
971	1635386	1.334764	0.000882
971	1642388	1.34458	0.000882
971	1649226	1.354358	0.000882
971	1656397	1.364837	0.000882
971	1663651	1.375166	0.000882
971	1670073	1.384777	0.000882
971	1676628	1.394388	0.000882
971	1683296	1.403999	0.000882
971	1690071	1.413774	0.000882
971	1696909	1.423552	0.000882
971	1704335	1.434122	0.001674
971	1711550	1.444954	0.00143
971	1718061	1.454594	0.000882
971	1725224	1.465309	0.000882
971	1731491	1.475134	0.000882
971	1737763	1.485132	0.000882
971	1744183	1.495024	0.000882
971	1750160	1.504955	0.000882
971	1756350	1.514727	0.000882
971	1762766	1.524617	0.000882
971	1768990	1.534395	0.000882
971	1775390	1.544719	0.000882
971	1781660	1.554339	0.000882
971	1787806	1.56395	0.000882
971	1794372	1.574902	0.000889
971	1799969	1.584579	0.000882
971	1805592	1.594404	0.000882
971	1812463	1.606722	0.000882
972	103616	0.048523	0.044926
972	175593	0.085894	0.023922
972	255898	0.129518	0.023808
972	330382	0.172507	0.029331
972	382596	0.203577	0.017406
972	438960	0.237702	0.024487
972	483452	0.265263	0.016996
972	529885	0.294078	0.020651
972	568521	0.318592	0.015709
972	601719	0.340582	0.01272
972	632242	0.360829	0.016419
972	657893	0.378942	0.013755
972	686598	0.399399	0.015566
972	711589	0.417066	0.011391
972	738444	0.436751	0.014622
972	767999	0.458612	0.014547
972	791732	0.47583	0.012543
972	813980	0.491558	0.010792
972	838592	0.51007	0.012776
972	856142	0.523138	0.011852
972	874593	0.536829	0.012475
972	895736	0.552587	0.010533
972	915459	0.567755	0.01033
972	937307	0.585111	0.013923
972	956764	0.600443	0.012416
972	974727	0.615076	0.010435
972	994274	0.630683	0.012182
972	1014279	0.646366	0.012662
973	103830	0.048644	0.008094
973	163002	0.078936	0.005367
973	226448	0.113187	0.005616
973	274983	0.140203	0.00221
973	321225	0.167047	0.005152
973	365685	0.193486	0.004849
973	404295	0.216074	0.005638
973	435823	0.23588	0.002731
973	470160	0.256639	0.003982
973	502000	0.276655	0.00357
973	534606	0.296817	0.003277
973	562764	0.314931	0.001079
973	596573	0.337257	0.005374
973	624247	0.355607	0.005621
973	648831	0.372503	0.005265
973	667085	0.38546	0.002224
973	695362	0.40582	0.006147
973	722582	0.424941	0.003154
973	746506	0.4429	0.004867
973	771104	0.460651	0.003745
973	792429	0.476195	0.004524
974	103932	0.048678	0.005778
974	159565	0.077233	0.004167
974	215195	0.107276	0.005136
974	270250	0.137722	0.00551
974	315692	0.163844	0.002645
974	354035	0.186718	0.002276
974	396602	0.212038	0.005626
974	439306	0.23783	0.005662
974	480064	0.26324	0.005336
974	519375	0.287537	0.004873
974	547741	0.305457	0.001429
975	104357	0.048923	0.045634
975	182611	0.08979	0.039005
975	252705	0.127663	0.035316
975	316256	0.164142	0.034189
975	377501	0.200527	0.034173
975	430803	0.23273	0.030332
975	482790	0.264886	0.027215
975	530803	0.294583	0.02731
975	564364	0.315916	0.019272
975	596164	0.336967	0.019991
975	621689	0.353883	0.015867
975	644330	0.369358	0.013737
975	669959	0.387386	0.014856
975	694803	0.405508	0.015557
975	722701	0.425071	0.015578
975	744097	0.441101	0.014981
975	763230	0.455088	0.012938
975	786717	0.471863	0.012505
975	810013	0.489343	0.015785
975	829536	0.503283	0.012111
975	848334	0.51724	0.011859
975	864158	0.528808	0.008886
975	885859	0.545356	0.0135
975	901285	0.556875	0.009742
975	917196	0.569158	0.009828
975	931932	0.580776	0.009688
975	949152	0.594887	0.012739
975	967438	0.609341	0.012138
975	982481	0.621105	0.009969
975	995069	0.631245	0.009091
975	1010916	0.643731	0.010277
975	1026770	0.656151	0.01125
975	1040768	0.667939	0.010354
975	1053074	0.678395	0.008731
975	1068606	0.692271	0.011183
975	1081420	0.703363	0.009305
975	1095263	0.715552	0.01089
975	1107646	0.726589	0.008933
975	1121629	0.738462	0.008729
975	1133173	0.749192	0.008729
975	1144058	0.75897	0.008729
975	1155005	0.768921	0.008886
975	1167954	0.781335	0.011089
975	1181929	0.794598	0.011103
975	1193410	0.805656	0.009333
975	1204694	0.816714	0.010009
975	1216155	0.827772	0.009719
975	1226270	0.837882	0.008729
975	1237082	0.848619	0.008729
975	1248647	0.859846	0.008921
975	1258449	0.869624	0.008729
975	1269841	0.880842	0.008729
975	1280544	0.891531	0.008729
975	1292489	0.903475	0.010557
975	1302568	0.913795	0.008729
975	1314434	0.926047	0.008729
975	1323728	0.935825	0.008729
975	1334810	0.947781	0.010043
975	1343310	0.957566	0.008729
975	1353541	0.968552	0.008729
975	1363654	0.979865	0.009474
975	1373610	0.991258	0.010344
975	1382151	1.001036	0.008729
975	1390533	1.010814	0.008729
975	1399013	1.020592	0.008729
975	1407026	1.03037	0.008729
975	1415698	1.040847	0.008729
975	1423458	1.050625	0.008729
975	1433808	1.063203	0.01147
975	1442990	1.07516	0.010908
975	1451598	1.086552	0.010343
975	1460466	1.097897	0.010296
975	1468277	1.107675	0.008729
975	1475833	1.117453	0.008729
975	1483602	1.127241	0.008739
975	1491737	1.137763	0.008996
975	1499583	1.14844	0.008729
975	1508348	1.159512	0.008743
975	1516867	1.17056	0.008729
975	1524419	1.180365	0.008729
975	1532464	1.190674	0.00926
975	1541157	1.201732	0.010009
976	104487	0.048955	0.011963
976	147691	0.071111	0.011099
976	189904	0.093824	0.012333
976	223811	0.111782	0.009037
976	249593	0.125908	0.001987
976	276574	0.141135	0.005255
976	295716	0.152294	0.001104
976	319418	0.166026	0.00449
976	343290	0.180294	0.004042
976	363298	0.192109	0.001857
976	389559	0.208015	0.004489
976	413075	0.221979	0.004432
976	443609	0.240218	0.00534
976	463983	0.253005	0.002658
976	482949	0.264986	0.001854
976	504569	0.278294	0.002459
976	526705	0.292009	0.003817
976	547050	0.304914	0.002016
976	566759	0.317594	0.00385
977	104512	0.048957	0.001475
977	181605	0.089288	0.002333
977	244298	0.122946	0.0023
977	293582	0.151095	0.001081
977	341277	0.179274	0.001239
977	386147	0.205758	0.001049
977	428029	0.231128	0.002533
977	467050	0.254862	0.001081
977	507819	0.280097	0.001318
977	537302	0.298494	0.001076
977	567899	0.318312	0.001049
977	595689	0.336689	0.001116
977	622721	0.354532	0.002137
977	644671	0.369692	0.001775
977	663440	0.382906	0.001049
977	682928	0.396846	0.001049
977	704469	0.411878	0.002141
977	722256	0.424726	0.001049
977	744413	0.441294	0.001865
977	764809	0.45611	0.002369
977	782307	0.468777	0.001049
977	800876	0.482075	0.001049
977	822368	0.498122	0.001762
977	840150	0.511213	0.002307
977	857611	0.52414	0.001049
977	874325	0.536623	0.001049
977	892493	0.550192	0.002001
978	106859	0.050064	0.00458
978	162429	0.078686	0.002123
979	106916	0.050078	0.047246
979	173015	0.084577	0.03256
979	230587	0.115568	0.02937
979	282967	0.145166	0.02684
979	325026	0.169287	0.020209
980	107204	0.050286	0.044135
980	185522	0.091423	0.023714
980	265980	0.135322	0.025108
980	325730	0.169672	0.023131
981	107254	0.050317	0.046926
981	185059	0.091137	0.037258
981	250246	0.126269	0.032461
981	308991	0.160007	0.030168
981	370623	0.196345	0.033856
981	421972	0.227154	0.029596
981	467616	0.255175	0.025935
981	510376	0.281661	0.024713
981	546686	0.304576	0.019834
982	107733	0.050595	0.010815
982	158298	0.076674	0.013874
982	195832	0.09723	0.009711
982	240730	0.120695	0.008842
982	268144	0.136472	0.003433
983	107834	0.050646	0.009688
983	180059	0.088414	0.005231
984	108178	0.050785	0.001862
984	187209	0.092347	0.002557
984	256706	0.129953	0.00229
984	319917	0.166354	0.002212
984	380709	0.202398	0.001871
984	438859	0.237671	0.004941
984	486843	0.267273	0.002387
984	534225	0.296644	0.002061
984	565885	0.316976	0.00106
984	597765	0.338016	0.001049
984	624282	0.355621	0.001738
984	648870	0.37253	0.003172
984	674035	0.389951	0.002565
984	700987	0.409493	0.003985
984	724026	0.42612	0.001049
984	745246	0.44215	0.001049
984	769289	0.459358	0.00427
984	788783	0.473558	0.001695
984	813194	0.491172	0.001829
984	832446	0.505381	0.002098
984	852084	0.519922	0.002682
984	868251	0.531856	0.003048
984	888128	0.547133	0.001777
984	904492	0.55933	0.002455
984	919743	0.571088	0.00193
984	933742	0.582148	0.001372
984	952578	0.597203	0.002316
984	969947	0.611136	0.001795
984	983923	0.622154	0.001049
984	997488	0.633454	0.002209
984	1012320	0.644901	0.00117
984	1028731	0.657585	0.001434
984	1042867	0.669664	0.001725
984	1055928	0.681088	0.002693
984	1070673	0.694058	0.001787
984	1082616	0.704662	0.001299
984	1097692	0.717656	0.002104
984	1111175	0.729733	0.003144
984	1123820	0.740463	0.002001
984	1134615	0.750241	0.001049
984	1145362	0.760035	0.001065
984	1156423	0.770246	0.001325
984	1170053	0.783495	0.00216
984	1183780	0.796323	0.001725
984	1194709	0.806705	0.001049
984	1206098	0.818053	0.001339
984	1217591	0.829153	0.001381
984	1228872	0.83989	0.002008
984	1239671	0.850925	0.002306
984	1249652	0.860895	0.001049
984	1261134	0.872113	0.002489
984	1271853	0.882802	0.00196
984	1282119	0.892918	0.001387
984	1294259	0.905066	0.001591
984	1306031	0.917318	0.003523
984	1315546	0.927096	0.001049
984	1325277	0.937738	0.001913
984	1335662	0.948837	0.001056
984	1345281	0.959823	0.002257
984	1355053	0.970391	0.001839
984	1364452	0.980914	0.001049
984	1374514	0.992307	0.001049
984	1382924	1.002085	0.001049
984	1391429	1.011863	0.001049
984	1400034	1.021641	0.001049
984	1408752	1.032118	0.001748
984	1416522	1.041896	0.001049
984	1424398	1.051733	0.001108
984	1434535	1.064252	0.001049
984	1443497	1.076209	0.001049
984	1452443	1.087601	0.001049
984	1461486	1.098946	0.001049
984	1468997	1.108724	0.001049
984	1476590	1.118502	0.001049
984	1484396	1.128767	0.001526
984	1492974	1.139711	0.001948
984	1501655	1.150769	0.002329
984	1510419	1.161831	0.002319
984	1518016	1.171636	0.001076
984	1525381	1.181414	0.001049
984	1533581	1.191723	0.001049
984	1542087	1.202781	0.001049
985	109650	0.051469	0.01912
985	176849	0.086635	0.021049
985	235481	0.11801	0.017567
985	284791	0.146178	0.015466
985	337929	0.177243	0.016071
985	381306	0.202811	0.013008
985	418734	0.225179	0.008619
985	458743	0.249714	0.010284
985	499301	0.274713	0.010254
985	536767	0.298204	0.010792
985	575292	0.323034	0.014774
985	600848	0.339959	0.007004
986	109879	0.051577	0.0156
986	201097	0.099859	0.018827
986	269127	0.13703	0.014549
986	326138	0.169851	0.010093
986	381578	0.202954	0.008479
986	432441	0.233804	0.008688
986	475872	0.260358	0.00675
986	527259	0.292374	0.012209
986	568258	0.318465	0.008633
986	600018	0.339517	0.007903
986	627769	0.357687	0.006631
986	655071	0.376929	0.005042
986	685392	0.398316	0.008648
986	706651	0.413423	0.003555
986	731087	0.431157	0.002986
986	764295	0.45574	0.007977
986	794431	0.477656	0.006169
987	110137	0.051691	0.011532
987	192842	0.095449	0.018154
987	266168	0.135428	0.014361
987	320738	0.166835	0.009771
987	381746	0.203068	0.007199
987	425537	0.229508	0.007393
987	468780	0.255834	0.006408
987	515730	0.28529	0.008007
987	552913	0.308734	0.008888
987	589367	0.332366	0.007003
987	616464	0.350261	0.004734
987	642754	0.368109	0.005611
987	664421	0.383719	0.003383
987	693136	0.404167	0.006115
987	716321	0.420621	0.005036
987	744006	0.441049	0.005692
987	764563	0.455901	0.004071
987	794224	0.477542	0.004708
987	819239	0.495739	0.005528
987	838426	0.509937	0.004022
987	856911	0.523631	0.00184
987	876097	0.537758	0.003178
987	893822	0.551118	0.003051
987	913118	0.566026	0.002557
987	932550	0.58136	0.002084
987	952001	0.5968	0.001961
987	968359	0.609905	0.001267
988	110198	0.051711	0.048371
988	187646	0.092531	0.039771
988	245126	0.123481	0.029901
988	297014	0.152849	0.027253
988	344375	0.18087	0.02517
988	388866	0.207591	0.024979
988	435177	0.235518	0.026035
988	476386	0.260704	0.022757
989	110748	0.052017	0.001939
989	176109	0.086198	0.001621
989	236165	0.118326	0.002758
989	290162	0.149078	0.003912
989	330972	0.172809	0.003522
990	112217	0.05276	0.001049
990	189329	0.09358	0.001049
990	248901	0.125596	0.002115
990	301651	0.1557	0.002851
990	347452	0.182612	0.001742
990	392185	0.209483	0.001892
990	439624	0.237947	0.002429
990	478520	0.262066	0.001362
991	112717	0.053058	0.049616
991	190136	0.093925	0.038538
991	257609	0.130357	0.035383
991	321008	0.16693	0.03455
991	379650	0.201874	0.031412
991	432970	0.234124	0.031201
991	480575	0.263539	0.025754
991	521623	0.288819	0.023583
991	553150	0.308899	0.019031
991	577381	0.324374	0.014106
991	604920	0.342496	0.015035
991	625845	0.356671	0.011303
991	648128	0.372099	0.013176
991	667785	0.386039	0.012891
991	689758	0.401373	0.011583
991	712973	0.418101	0.013065
991	732849	0.432506	0.010501
991	751775	0.446724	0.011879
991	773208	0.462105	0.012525
991	790343	0.474698	0.010825
991	808256	0.487996	0.011583
991	827677	0.501936	0.012343
991	844952	0.514529	0.009309
992	114358	0.053879	0.003562
992	189864	0.093808	0.002671
992	256491	0.129839	0.00357
992	313376	0.162489	0.002482
992	372326	0.197558	0.001213
992	425029	0.22924	0.002086
992	470559	0.256948	0.001773
992	514993	0.284742	0.003081
992	549263	0.306647	0.002071
993	115787	0.054688	0.051195
993	194869	0.09676	0.040555
993	267087	0.135933	0.038124
993	330360	0.172506	0.035524
994	117421	0.055387	0.002329
994	191881	0.094974	0.001049
994	261160	0.13238	0.002023
994	326893	0.170462	0.003532
994	381519	0.202923	0.001049
994	439192	0.237785	0.003661
994	483405	0.265236	0.001697
994	523133	0.289868	0.001049
994	555530	0.310268	0.001369
994	581713	0.327461	0.003087
994	609313	0.345368	0.002872
994	629562	0.358923	0.002252
994	649721	0.373148	0.001049
994	673825	0.38979	0.003751
994	694265	0.405036	0.003663
994	718376	0.422005	0.003904
994	735812	0.434845	0.002339
994	756383	0.44958	0.002856
994	775646	0.463873	0.001768
994	792793	0.476413	0.001715
994	810394	0.489593	0.001597
994	832058	0.50522	0.003284
994	850002	0.518434	0.003905
995	118833	0.056143	0.01459
995	204105	0.101367	0.017453
995	274850	0.14014	0.014871
995	335849	0.176024	0.01069
995	388571	0.207411	0.008746
995	442679	0.239608	0.010181
995	489391	0.26895	0.009699
995	534411	0.296737	0.009602
995	571606	0.320342	0.009116
995	600913	0.34002	0.005108
995	632146	0.36075	0.005445
995	662469	0.382117	0.007442
995	687575	0.399965	0.004654
995	712390	0.417625	0.004969
995	734672	0.434012	0.003897
995	762286	0.454279	0.005028
995	784657	0.470505	0.005312
995	809292	0.488608	0.002881
996	118936	0.056205	0.001517
996	196802	0.097809	0.001049
996	269033	0.136982	0.001049
996	332195	0.173555	0.001049
997	129558	0.061972	0.013449
997	212040	0.10571	0.019816
997	279739	0.143176	0.013658
997	352942	0.186171	0.013664
997	398883	0.213215	0.009638
997	455888	0.248267	0.010565
997	497158	0.273427	0.008164
997	544312	0.302883	0.008805
997	582463	0.327862	0.00927
997	607980	0.34441	0.003828
997	638393	0.365187	0.004358
997	664604	0.383833	0.004891
997	695073	0.405675	0.006276
997	718538	0.422129	0.005063
997	748117	0.444065	0.007314
997	774627	0.463287	0.004675
997	799146	0.480766	0.004936
997	821169	0.497294	0.005736
997	840250	0.511286	0.001216
997	857918	0.524354	0.001216
997	881540	0.542054	0.005225
997	902018	0.557425	0.004838
997	919923	0.571188	0.003433
997	941314	0.588027	0.002916
997	961394	0.604641	0.004198
997	978843	0.618501	0.003425
997	997845	0.633704	0.003021
997	1019421	0.650656	0.00429
998	141100	0.067709	0.017423
998	220516	0.110214	0.018791
998	285487	0.146541	0.011219
998	345925	0.181828	0.012156

