version 2
run General-0-20220427-19:58:10-21838
attr configname General
attr datetime 20220427-19:58:10
attr experiment General
attr inifile Jellyfish_16_4_3__fvj_flat_traffic_baseline_seed3_jitter.ini
attr iterationvars ""
attr iterationvarsf ""
attr measurement ""
attr network Jellyfish_16_4_3__fvj_flat_traffic_baseline_seed3_jitter
attr processid 21838
attr repetition 0
attr replication #0
attr resultdir results
attr runnumber 0
attr seedset 0
param **.ppp[*].ppp.queue.typename "\"DropTailQueue\""
param **.ppp[*].ppp.queue.packetCapacity 100
param *.configurator.config "xmldoc(\"Jellyfish_16_4_3__fvj_flat_traffic_baseline_seed3_jitter.xml\")"
param **.sink_000.numApps 1
param **.sink_000.app[0].typename "\"TcpGenericServerApp\""
param **.sink_000.app[0].localAddress "\"\""
param **.sink_000.app[0].localPort 1100
param **.sink_000.app[0].replyDelay 0s
param **.sink_001.numApps 1
param **.sink_001.app[0].typename "\"TcpGenericServerApp\""
param **.sink_001.app[0].localAddress "\"\""
param **.sink_001.app[0].localPort 1100
param **.sink_001.app[0].replyDelay 0s
param **.sink_002.numApps 1
param **.sink_002.app[0].typename "\"TcpGenericServerApp\""
param **.sink_002.app[0].localAddress "\"\""
param **.sink_002.app[0].localPort 1100
param **.sink_002.app[0].replyDelay 0s
param **.sink_003.numApps 1
param **.sink_003.app[0].typename "\"TcpGenericServerApp\""
param **.sink_003.app[0].localAddress "\"\""
param **.sink_003.app[0].localPort 1100
param **.sink_003.app[0].replyDelay 0s
param **.sink_004.numApps 1
param **.sink_004.app[0].typename "\"TcpGenericServerApp\""
param **.sink_004.app[0].localAddress "\"\""
param **.sink_004.app[0].localPort 1100
param **.sink_004.app[0].replyDelay 0s
param **.sink_005.numApps 1
param **.sink_005.app[0].typename "\"TcpGenericServerApp\""
param **.sink_005.app[0].localAddress "\"\""
param **.sink_005.app[0].localPort 1100
param **.sink_005.app[0].replyDelay 0s
param **.sink_006.numApps 1
param **.sink_006.app[0].typename "\"TcpGenericServerApp\""
param **.sink_006.app[0].localAddress "\"\""
param **.sink_006.app[0].localPort 1100
param **.sink_006.app[0].replyDelay 0s
param **.sink_007.numApps 1
param **.sink_007.app[0].typename "\"TcpGenericServerApp\""
param **.sink_007.app[0].localAddress "\"\""
param **.sink_007.app[0].localPort 1100
param **.sink_007.app[0].replyDelay 0s
param **.sink_008.numApps 1
param **.sink_008.app[0].typename "\"TcpGenericServerApp\""
param **.sink_008.app[0].localAddress "\"\""
param **.sink_008.app[0].localPort 1100
param **.sink_008.app[0].replyDelay 0s
param **.sink_009.numApps 1
param **.sink_009.app[0].typename "\"TcpGenericServerApp\""
param **.sink_009.app[0].localAddress "\"\""
param **.sink_009.app[0].localPort 1100
param **.sink_009.app[0].replyDelay 0s
param **.sink_010.numApps 1
param **.sink_010.app[0].typename "\"TcpGenericServerApp\""
param **.sink_010.app[0].localAddress "\"\""
param **.sink_010.app[0].localPort 1100
param **.sink_010.app[0].replyDelay 0s
param **.sink_011.numApps 1
param **.sink_011.app[0].typename "\"TcpGenericServerApp\""
param **.sink_011.app[0].localAddress "\"\""
param **.sink_011.app[0].localPort 1100
param **.sink_011.app[0].replyDelay 0s
param **.sink_012.numApps 1
param **.sink_012.app[0].typename "\"TcpGenericServerApp\""
param **.sink_012.app[0].localAddress "\"\""
param **.sink_012.app[0].localPort 1100
param **.sink_012.app[0].replyDelay 0s
param **.sink_013.numApps 1
param **.sink_013.app[0].typename "\"TcpGenericServerApp\""
param **.sink_013.app[0].localAddress "\"\""
param **.sink_013.app[0].localPort 1100
param **.sink_013.app[0].replyDelay 0s
param **.sink_014.numApps 1
param **.sink_014.app[0].typename "\"TcpGenericServerApp\""
param **.sink_014.app[0].localAddress "\"\""
param **.sink_014.app[0].localPort 1100
param **.sink_014.app[0].replyDelay 0s
param **.sink_015.numApps 1
param **.sink_015.app[0].typename "\"TcpGenericServerApp\""
param **.sink_015.app[0].localAddress "\"\""
param **.sink_015.app[0].localPort 1100
param **.sink_015.app[0].replyDelay 0s
param **.sink_016.numApps 1
param **.sink_016.app[0].typename "\"TcpGenericServerApp\""
param **.sink_016.app[0].localAddress "\"\""
param **.sink_016.app[0].localPort 1100
param **.sink_016.app[0].replyDelay 0s
param **.sink_017.numApps 1
param **.sink_017.app[0].typename "\"TcpGenericServerApp\""
param **.sink_017.app[0].localAddress "\"\""
param **.sink_017.app[0].localPort 1100
param **.sink_017.app[0].replyDelay 0s
param **.sink_018.numApps 1
param **.sink_018.app[0].typename "\"TcpGenericServerApp\""
param **.sink_018.app[0].localAddress "\"\""
param **.sink_018.app[0].localPort 1100
param **.sink_018.app[0].replyDelay 0s
param **.sink_019.numApps 1
param **.sink_019.app[0].typename "\"TcpGenericServerApp\""
param **.sink_019.app[0].localAddress "\"\""
param **.sink_019.app[0].localPort 1100
param **.sink_019.app[0].replyDelay 0s
param **.sink_020.numApps 1
param **.sink_020.app[0].typename "\"TcpGenericServerApp\""
param **.sink_020.app[0].localAddress "\"\""
param **.sink_020.app[0].localPort 1100
param **.sink_020.app[0].replyDelay 0s
param **.sink_021.numApps 1
param **.sink_021.app[0].typename "\"TcpGenericServerApp\""
param **.sink_021.app[0].localAddress "\"\""
param **.sink_021.app[0].localPort 1100
param **.sink_021.app[0].replyDelay 0s
param **.sink_022.numApps 1
param **.sink_022.app[0].typename "\"TcpGenericServerApp\""
param **.sink_022.app[0].localAddress "\"\""
param **.sink_022.app[0].localPort 1100
param **.sink_022.app[0].replyDelay 0s
param **.sink_023.numApps 1
param **.sink_023.app[0].typename "\"TcpGenericServerApp\""
param **.sink_023.app[0].localAddress "\"\""
param **.sink_023.app[0].localPort 1100
param **.sink_023.app[0].replyDelay 0s
param **.sink_024.numApps 1
param **.sink_024.app[0].typename "\"TcpGenericServerApp\""
param **.sink_024.app[0].localAddress "\"\""
param **.sink_024.app[0].localPort 1100
param **.sink_024.app[0].replyDelay 0s
param **.sink_025.numApps 1
param **.sink_025.app[0].typename "\"TcpGenericServerApp\""
param **.sink_025.app[0].localAddress "\"\""
param **.sink_025.app[0].localPort 1100
param **.sink_025.app[0].replyDelay 0s
param **.sink_026.numApps 1
param **.sink_026.app[0].typename "\"TcpGenericServerApp\""
param **.sink_026.app[0].localAddress "\"\""
param **.sink_026.app[0].localPort 1100
param **.sink_026.app[0].replyDelay 0s
param **.sink_027.numApps 1
param **.sink_027.app[0].typename "\"TcpGenericServerApp\""
param **.sink_027.app[0].localAddress "\"\""
param **.sink_027.app[0].localPort 1100
param **.sink_027.app[0].replyDelay 0s
param **.sink_028.numApps 1
param **.sink_028.app[0].typename "\"TcpGenericServerApp\""
param **.sink_028.app[0].localAddress "\"\""
param **.sink_028.app[0].localPort 1100
param **.sink_028.app[0].replyDelay 0s
param **.sink_029.numApps 1
param **.sink_029.app[0].typename "\"TcpGenericServerApp\""
param **.sink_029.app[0].localAddress "\"\""
param **.sink_029.app[0].localPort 1100
param **.sink_029.app[0].replyDelay 0s
param **.sink_030.numApps 1
param **.sink_030.app[0].typename "\"TcpGenericServerApp\""
param **.sink_030.app[0].localAddress "\"\""
param **.sink_030.app[0].localPort 1100
param **.sink_030.app[0].replyDelay 0s
param **.sink_031.numApps 1
param **.sink_031.app[0].typename "\"TcpGenericServerApp\""
param **.sink_031.app[0].localAddress "\"\""
param **.sink_031.app[0].localPort 1100
param **.sink_031.app[0].replyDelay 0s
param **.sink_032.numApps 1
param **.sink_032.app[0].typename "\"TcpGenericServerApp\""
param **.sink_032.app[0].localAddress "\"\""
param **.sink_032.app[0].localPort 1100
param **.sink_032.app[0].replyDelay 0s
param **.sink_033.numApps 1
param **.sink_033.app[0].typename "\"TcpGenericServerApp\""
param **.sink_033.app[0].localAddress "\"\""
param **.sink_033.app[0].localPort 1100
param **.sink_033.app[0].replyDelay 0s
param **.sink_034.numApps 1
param **.sink_034.app[0].typename "\"TcpGenericServerApp\""
param **.sink_034.app[0].localAddress "\"\""
param **.sink_034.app[0].localPort 1100
param **.sink_034.app[0].replyDelay 0s
param **.sink_035.numApps 1
param **.sink_035.app[0].typename "\"TcpGenericServerApp\""
param **.sink_035.app[0].localAddress "\"\""
param **.sink_035.app[0].localPort 1100
param **.sink_035.app[0].replyDelay 0s
param **.sink_036.numApps 1
param **.sink_036.app[0].typename "\"TcpGenericServerApp\""
param **.sink_036.app[0].localAddress "\"\""
param **.sink_036.app[0].localPort 1100
param **.sink_036.app[0].replyDelay 0s
param **.sink_037.numApps 1
param **.sink_037.app[0].typename "\"TcpGenericServerApp\""
param **.sink_037.app[0].localAddress "\"\""
param **.sink_037.app[0].localPort 1100
param **.sink_037.app[0].replyDelay 0s
param **.sink_038.numApps 1
param **.sink_038.app[0].typename "\"TcpGenericServerApp\""
param **.sink_038.app[0].localAddress "\"\""
param **.sink_038.app[0].localPort 1100
param **.sink_038.app[0].replyDelay 0s
param **.sink_039.numApps 1
param **.sink_039.app[0].typename "\"TcpGenericServerApp\""
param **.sink_039.app[0].localAddress "\"\""
param **.sink_039.app[0].localPort 1100
param **.sink_039.app[0].replyDelay 0s
param **.sink_040.numApps 1
param **.sink_040.app[0].typename "\"TcpGenericServerApp\""
param **.sink_040.app[0].localAddress "\"\""
param **.sink_040.app[0].localPort 1100
param **.sink_040.app[0].replyDelay 0s
param **.sink_041.numApps 1
param **.sink_041.app[0].typename "\"TcpGenericServerApp\""
param **.sink_041.app[0].localAddress "\"\""
param **.sink_041.app[0].localPort 1100
param **.sink_041.app[0].replyDelay 0s
param **.sink_042.numApps 1
param **.sink_042.app[0].typename "\"TcpGenericServerApp\""
param **.sink_042.app[0].localAddress "\"\""
param **.sink_042.app[0].localPort 1100
param **.sink_042.app[0].replyDelay 0s
param **.sink_043.numApps 1
param **.sink_043.app[0].typename "\"TcpGenericServerApp\""
param **.sink_043.app[0].localAddress "\"\""
param **.sink_043.app[0].localPort 1100
param **.sink_043.app[0].replyDelay 0s
param **.sink_044.numApps 1
param **.sink_044.app[0].typename "\"TcpGenericServerApp\""
param **.sink_044.app[0].localAddress "\"\""
param **.sink_044.app[0].localPort 1100
param **.sink_044.app[0].replyDelay 0s
param **.sink_045.numApps 1
param **.sink_045.app[0].typename "\"TcpGenericServerApp\""
param **.sink_045.app[0].localAddress "\"\""
param **.sink_045.app[0].localPort 1100
param **.sink_045.app[0].replyDelay 0s
param **.sink_046.numApps 1
param **.sink_046.app[0].typename "\"TcpGenericServerApp\""
param **.sink_046.app[0].localAddress "\"\""
param **.sink_046.app[0].localPort 1100
param **.sink_046.app[0].replyDelay 0s
param **.sink_047.numApps 1
param **.sink_047.app[0].typename "\"TcpGenericServerApp\""
param **.sink_047.app[0].localAddress "\"\""
param **.sink_047.app[0].localPort 1100
param **.sink_047.app[0].replyDelay 0s
param **.sink_048.numApps 1
param **.sink_048.app[0].typename "\"TcpGenericServerApp\""
param **.sink_048.app[0].localAddress "\"\""
param **.sink_048.app[0].localPort 1100
param **.sink_048.app[0].replyDelay 0s
param **.sink_049.numApps 1
param **.sink_049.app[0].typename "\"TcpGenericServerApp\""
param **.sink_049.app[0].localAddress "\"\""
param **.sink_049.app[0].localPort 1100
param **.sink_049.app[0].replyDelay 0s
param **.sink_050.numApps 1
param **.sink_050.app[0].typename "\"TcpGenericServerApp\""
param **.sink_050.app[0].localAddress "\"\""
param **.sink_050.app[0].localPort 1100
param **.sink_050.app[0].replyDelay 0s
param **.sink_051.numApps 1
param **.sink_051.app[0].typename "\"TcpGenericServerApp\""
param **.sink_051.app[0].localAddress "\"\""
param **.sink_051.app[0].localPort 1100
param **.sink_051.app[0].replyDelay 0s
param **.sink_052.numApps 1
param **.sink_052.app[0].typename "\"TcpGenericServerApp\""
param **.sink_052.app[0].localAddress "\"\""
param **.sink_052.app[0].localPort 1100
param **.sink_052.app[0].replyDelay 0s
param **.sink_053.numApps 1
param **.sink_053.app[0].typename "\"TcpGenericServerApp\""
param **.sink_053.app[0].localAddress "\"\""
param **.sink_053.app[0].localPort 1100
param **.sink_053.app[0].replyDelay 0s
param **.sink_054.numApps 1
param **.sink_054.app[0].typename "\"TcpGenericServerApp\""
param **.sink_054.app[0].localAddress "\"\""
param **.sink_054.app[0].localPort 1100
param **.sink_054.app[0].replyDelay 0s
param **.sink_055.numApps 1
param **.sink_055.app[0].typename "\"TcpGenericServerApp\""
param **.sink_055.app[0].localAddress "\"\""
param **.sink_055.app[0].localPort 1100
param **.sink_055.app[0].replyDelay 0s
param **.sink_056.numApps 1
param **.sink_056.app[0].typename "\"TcpGenericServerApp\""
param **.sink_056.app[0].localAddress "\"\""
param **.sink_056.app[0].localPort 1100
param **.sink_056.app[0].replyDelay 0s
param **.sink_057.numApps 1
param **.sink_057.app[0].typename "\"TcpGenericServerApp\""
param **.sink_057.app[0].localAddress "\"\""
param **.sink_057.app[0].localPort 1100
param **.sink_057.app[0].replyDelay 0s
param **.sink_058.numApps 1
param **.sink_058.app[0].typename "\"TcpGenericServerApp\""
param **.sink_058.app[0].localAddress "\"\""
param **.sink_058.app[0].localPort 1100
param **.sink_058.app[0].replyDelay 0s
param **.sink_059.numApps 1
param **.sink_059.app[0].typename "\"TcpGenericServerApp\""
param **.sink_059.app[0].localAddress "\"\""
param **.sink_059.app[0].localPort 1100
param **.sink_059.app[0].replyDelay 0s
param **.sink_060.numApps 1
param **.sink_060.app[0].typename "\"TcpGenericServerApp\""
param **.sink_060.app[0].localAddress "\"\""
param **.sink_060.app[0].localPort 1100
param **.sink_060.app[0].replyDelay 0s
param **.sink_061.numApps 1
param **.sink_061.app[0].typename "\"TcpGenericServerApp\""
param **.sink_061.app[0].localAddress "\"\""
param **.sink_061.app[0].localPort 1100
param **.sink_061.app[0].replyDelay 0s
param **.sink_062.numApps 1
param **.sink_062.app[0].typename "\"TcpGenericServerApp\""
param **.sink_062.app[0].localAddress "\"\""
param **.sink_062.app[0].localPort 1100
param **.sink_062.app[0].replyDelay 0s
param **.sink_063.numApps 1
param **.sink_063.app[0].typename "\"TcpGenericServerApp\""
param **.sink_063.app[0].localAddress "\"\""
param **.sink_063.app[0].localPort 1100
param **.sink_063.app[0].replyDelay 0s
param **.sink_064.numApps 1
param **.sink_064.app[0].typename "\"TcpGenericServerApp\""
param **.sink_064.app[0].localAddress "\"\""
param **.sink_064.app[0].localPort 1100
param **.sink_064.app[0].replyDelay 0s
param **.sink_065.numApps 1
param **.sink_065.app[0].typename "\"TcpGenericServerApp\""
param **.sink_065.app[0].localAddress "\"\""
param **.sink_065.app[0].localPort 1100
param **.sink_065.app[0].replyDelay 0s
param **.sink_066.numApps 1
param **.sink_066.app[0].typename "\"TcpGenericServerApp\""
param **.sink_066.app[0].localAddress "\"\""
param **.sink_066.app[0].localPort 1100
param **.sink_066.app[0].replyDelay 0s
param **.sink_067.numApps 1
param **.sink_067.app[0].typename "\"TcpGenericServerApp\""
param **.sink_067.app[0].localAddress "\"\""
param **.sink_067.app[0].localPort 1100
param **.sink_067.app[0].replyDelay 0s
param **.sink_068.numApps 1
param **.sink_068.app[0].typename "\"TcpGenericServerApp\""
param **.sink_068.app[0].localAddress "\"\""
param **.sink_068.app[0].localPort 1100
param **.sink_068.app[0].replyDelay 0s
param **.sink_069.numApps 1
param **.sink_069.app[0].typename "\"TcpGenericServerApp\""
param **.sink_069.app[0].localAddress "\"\""
param **.sink_069.app[0].localPort 1100
param **.sink_069.app[0].replyDelay 0s
param **.sink_070.numApps 1
param **.sink_070.app[0].typename "\"TcpGenericServerApp\""
param **.sink_070.app[0].localAddress "\"\""
param **.sink_070.app[0].localPort 1100
param **.sink_070.app[0].replyDelay 0s
param **.sink_071.numApps 1
param **.sink_071.app[0].typename "\"TcpGenericServerApp\""
param **.sink_071.app[0].localAddress "\"\""
param **.sink_071.app[0].localPort 1100
param **.sink_071.app[0].replyDelay 0s
param **.sink_072.numApps 1
param **.sink_072.app[0].typename "\"TcpGenericServerApp\""
param **.sink_072.app[0].localAddress "\"\""
param **.sink_072.app[0].localPort 1100
param **.sink_072.app[0].replyDelay 0s
param **.sink_073.numApps 1
param **.sink_073.app[0].typename "\"TcpGenericServerApp\""
param **.sink_073.app[0].localAddress "\"\""
param **.sink_073.app[0].localPort 1100
param **.sink_073.app[0].replyDelay 0s
param **.sink_074.numApps 1
param **.sink_074.app[0].typename "\"TcpGenericServerApp\""
param **.sink_074.app[0].localAddress "\"\""
param **.sink_074.app[0].localPort 1100
param **.sink_074.app[0].replyDelay 0s
param **.sink_075.numApps 1
param **.sink_075.app[0].typename "\"TcpGenericServerApp\""
param **.sink_075.app[0].localAddress "\"\""
param **.sink_075.app[0].localPort 1100
param **.sink_075.app[0].replyDelay 0s
param **.sink_076.numApps 1
param **.sink_076.app[0].typename "\"TcpGenericServerApp\""
param **.sink_076.app[0].localAddress "\"\""
param **.sink_076.app[0].localPort 1100
param **.sink_076.app[0].replyDelay 0s
param **.sink_077.numApps 1
param **.sink_077.app[0].typename "\"TcpGenericServerApp\""
param **.sink_077.app[0].localAddress "\"\""
param **.sink_077.app[0].localPort 1100
param **.sink_077.app[0].replyDelay 0s
param **.sink_078.numApps 1
param **.sink_078.app[0].typename "\"TcpGenericServerApp\""
param **.sink_078.app[0].localAddress "\"\""
param **.sink_078.app[0].localPort 1100
param **.sink_078.app[0].replyDelay 0s
param **.sink_079.numApps 1
param **.sink_079.app[0].typename "\"TcpGenericServerApp\""
param **.sink_079.app[0].localAddress "\"\""
param **.sink_079.app[0].localPort 1100
param **.sink_079.app[0].replyDelay 0s
param **.source_000.numApps 1
param **.source_000.app[0].typename "\"TcpBasicClientApp\""
param **.source_000.app[0].localAddress "\"\""
param **.source_000.app[0].connectAddress "\"sink_000\""
param **.source_000.app[0].connectPort 1100
param **.source_000.app[0].startTime 0s
param **.source_000.app[0].idleInterval 1000s
param **.source_000.app[0].requestLength 1300B
param **.source_000.app[0].replyLength 20B
param **.source_000.app[0].thinkTime 0s
param **.source_000.app[0].numRequestsPerSession 77
param **.source_001.numApps 1
param **.source_001.app[0].typename "\"TcpBasicClientApp\""
param **.source_001.app[0].localAddress "\"\""
param **.source_001.app[0].connectAddress "\"sink_001\""
param **.source_001.app[0].connectPort 1100
param **.source_001.app[0].startTime 0s
param **.source_001.app[0].idleInterval 1000s
param **.source_001.app[0].requestLength 1300B
param **.source_001.app[0].replyLength 20B
param **.source_001.app[0].thinkTime 0s
param **.source_001.app[0].numRequestsPerSession 77
param **.source_002.numApps 1
param **.source_002.app[0].typename "\"TcpBasicClientApp\""
param **.source_002.app[0].localAddress "\"\""
param **.source_002.app[0].connectAddress "\"sink_002\""
param **.source_002.app[0].connectPort 1100
param **.source_002.app[0].startTime 0s
param **.source_002.app[0].idleInterval 1000s
param **.source_002.app[0].requestLength 1300B
param **.source_002.app[0].replyLength 20B
param **.source_002.app[0].thinkTime 0s
param **.source_002.app[0].numRequestsPerSession 77
param **.source_003.numApps 1
param **.source_003.app[0].typename "\"TcpBasicClientApp\""
param **.source_003.app[0].localAddress "\"\""
param **.source_003.app[0].connectAddress "\"sink_003\""
param **.source_003.app[0].connectPort 1100
param **.source_003.app[0].startTime 0s
param **.source_003.app[0].idleInterval 1000s
param **.source_003.app[0].requestLength 1300B
param **.source_003.app[0].replyLength 20B
param **.source_003.app[0].thinkTime 0s
param **.source_003.app[0].numRequestsPerSession 77
param **.source_004.numApps 1
param **.source_004.app[0].typename "\"TcpBasicClientApp\""
param **.source_004.app[0].localAddress "\"\""
param **.source_004.app[0].connectAddress "\"sink_004\""
param **.source_004.app[0].connectPort 1100
param **.source_004.app[0].startTime 0s
param **.source_004.app[0].idleInterval 1000s
param **.source_004.app[0].requestLength 1300B
param **.source_004.app[0].replyLength 20B
param **.source_004.app[0].thinkTime 0s
param **.source_004.app[0].numRequestsPerSession 77
param **.source_005.numApps 1
param **.source_005.app[0].typename "\"TcpBasicClientApp\""
param **.source_005.app[0].localAddress "\"\""
param **.source_005.app[0].connectAddress "\"sink_005\""
param **.source_005.app[0].connectPort 1100
param **.source_005.app[0].startTime 0s
param **.source_005.app[0].idleInterval 1000s
param **.source_005.app[0].requestLength 1300B
param **.source_005.app[0].replyLength 20B
param **.source_005.app[0].thinkTime 0s
param **.source_005.app[0].numRequestsPerSession 77
param **.source_006.numApps 1
param **.source_006.app[0].typename "\"TcpBasicClientApp\""
param **.source_006.app[0].localAddress "\"\""
param **.source_006.app[0].connectAddress "\"sink_006\""
param **.source_006.app[0].connectPort 1100
param **.source_006.app[0].startTime 0s
param **.source_006.app[0].idleInterval 1000s
param **.source_006.app[0].requestLength 1300B
param **.source_006.app[0].replyLength 20B
param **.source_006.app[0].thinkTime 0s
param **.source_006.app[0].numRequestsPerSession 77
param **.source_007.numApps 1
param **.source_007.app[0].typename "\"TcpBasicClientApp\""
param **.source_007.app[0].localAddress "\"\""
param **.source_007.app[0].connectAddress "\"sink_007\""
param **.source_007.app[0].connectPort 1100
param **.source_007.app[0].startTime 0s
param **.source_007.app[0].idleInterval 1000s
param **.source_007.app[0].requestLength 1300B
param **.source_007.app[0].replyLength 20B
param **.source_007.app[0].thinkTime 0s
param **.source_007.app[0].numRequestsPerSession 77
param **.source_008.numApps 1
param **.source_008.app[0].typename "\"TcpBasicClientApp\""
param **.source_008.app[0].localAddress "\"\""
param **.source_008.app[0].connectAddress "\"sink_008\""
param **.source_008.app[0].connectPort 1100
param **.source_008.app[0].startTime 0s
param **.source_008.app[0].idleInterval 1000s
param **.source_008.app[0].requestLength 1300B
param **.source_008.app[0].replyLength 20B
param **.source_008.app[0].thinkTime 0s
param **.source_008.app[0].numRequestsPerSession 77
param **.source_009.numApps 1
param **.source_009.app[0].typename "\"TcpBasicClientApp\""
param **.source_009.app[0].localAddress "\"\""
param **.source_009.app[0].connectAddress "\"sink_009\""
param **.source_009.app[0].connectPort 1100
param **.source_009.app[0].startTime 0s
param **.source_009.app[0].idleInterval 1000s
param **.source_009.app[0].requestLength 1300B
param **.source_009.app[0].replyLength 20B
param **.source_009.app[0].thinkTime 0s
param **.source_009.app[0].numRequestsPerSession 77
param **.source_010.numApps 1
param **.source_010.app[0].typename "\"TcpBasicClientApp\""
param **.source_010.app[0].localAddress "\"\""
param **.source_010.app[0].connectAddress "\"sink_010\""
param **.source_010.app[0].connectPort 1100
param **.source_010.app[0].startTime 0s
param **.source_010.app[0].idleInterval 1000s
param **.source_010.app[0].requestLength 1300B
param **.source_010.app[0].replyLength 20B
param **.source_010.app[0].thinkTime 0s
param **.source_010.app[0].numRequestsPerSession 77
param **.source_011.numApps 1
param **.source_011.app[0].typename "\"TcpBasicClientApp\""
param **.source_011.app[0].localAddress "\"\""
param **.source_011.app[0].connectAddress "\"sink_011\""
param **.source_011.app[0].connectPort 1100
param **.source_011.app[0].startTime 0s
param **.source_011.app[0].idleInterval 1000s
param **.source_011.app[0].requestLength 1300B
param **.source_011.app[0].replyLength 20B
param **.source_011.app[0].thinkTime 0s
param **.source_011.app[0].numRequestsPerSession 77
param **.source_012.numApps 1
param **.source_012.app[0].typename "\"TcpBasicClientApp\""
param **.source_012.app[0].localAddress "\"\""
param **.source_012.app[0].connectAddress "\"sink_012\""
param **.source_012.app[0].connectPort 1100
param **.source_012.app[0].startTime 0s
param **.source_012.app[0].idleInterval 1000s
param **.source_012.app[0].requestLength 1300B
param **.source_012.app[0].replyLength 20B
param **.source_012.app[0].thinkTime 0s
param **.source_012.app[0].numRequestsPerSession 77
param **.source_013.numApps 1
param **.source_013.app[0].typename "\"TcpBasicClientApp\""
param **.source_013.app[0].localAddress "\"\""
param **.source_013.app[0].connectAddress "\"sink_013\""
param **.source_013.app[0].connectPort 1100
param **.source_013.app[0].startTime 0s
param **.source_013.app[0].idleInterval 1000s
param **.source_013.app[0].requestLength 1300B
param **.source_013.app[0].replyLength 20B
param **.source_013.app[0].thinkTime 0s
param **.source_013.app[0].numRequestsPerSession 77
param **.source_014.numApps 1
param **.source_014.app[0].typename "\"TcpBasicClientApp\""
param **.source_014.app[0].localAddress "\"\""
param **.source_014.app[0].connectAddress "\"sink_014\""
param **.source_014.app[0].connectPort 1100
param **.source_014.app[0].startTime 0s
param **.source_014.app[0].idleInterval 1000s
param **.source_014.app[0].requestLength 1300B
param **.source_014.app[0].replyLength 20B
param **.source_014.app[0].thinkTime 0s
param **.source_014.app[0].numRequestsPerSession 77
param **.source_015.numApps 1
param **.source_015.app[0].typename "\"TcpBasicClientApp\""
param **.source_015.app[0].localAddress "\"\""
param **.source_015.app[0].connectAddress "\"sink_015\""
param **.source_015.app[0].connectPort 1100
param **.source_015.app[0].startTime 0s
param **.source_015.app[0].idleInterval 1000s
param **.source_015.app[0].requestLength 1300B
param **.source_015.app[0].replyLength 20B
param **.source_015.app[0].thinkTime 0s
param **.source_015.app[0].numRequestsPerSession 77
param **.source_016.numApps 1
param **.source_016.app[0].typename "\"TcpBasicClientApp\""
param **.source_016.app[0].localAddress "\"\""
param **.source_016.app[0].connectAddress "\"sink_016\""
param **.source_016.app[0].connectPort 1100
param **.source_016.app[0].startTime 0s
param **.source_016.app[0].idleInterval 1000s
param **.source_016.app[0].requestLength 1300B
param **.source_016.app[0].replyLength 20B
param **.source_016.app[0].thinkTime 0s
param **.source_016.app[0].numRequestsPerSession 77
param **.source_017.numApps 1
param **.source_017.app[0].typename "\"TcpBasicClientApp\""
param **.source_017.app[0].localAddress "\"\""
param **.source_017.app[0].connectAddress "\"sink_017\""
param **.source_017.app[0].connectPort 1100
param **.source_017.app[0].startTime 0s
param **.source_017.app[0].idleInterval 1000s
param **.source_017.app[0].requestLength 1300B
param **.source_017.app[0].replyLength 20B
param **.source_017.app[0].thinkTime 0s
param **.source_017.app[0].numRequestsPerSession 77
param **.source_018.numApps 1
param **.source_018.app[0].typename "\"TcpBasicClientApp\""
param **.source_018.app[0].localAddress "\"\""
param **.source_018.app[0].connectAddress "\"sink_018\""
param **.source_018.app[0].connectPort 1100
param **.source_018.app[0].startTime 0s
param **.source_018.app[0].idleInterval 1000s
param **.source_018.app[0].requestLength 1300B
param **.source_018.app[0].replyLength 20B
param **.source_018.app[0].thinkTime 0s
param **.source_018.app[0].numRequestsPerSession 77
param **.source_019.numApps 1
param **.source_019.app[0].typename "\"TcpBasicClientApp\""
param **.source_019.app[0].localAddress "\"\""
param **.source_019.app[0].connectAddress "\"sink_019\""
param **.source_019.app[0].connectPort 1100
param **.source_019.app[0].startTime 0s
param **.source_019.app[0].idleInterval 1000s
param **.source_019.app[0].requestLength 1300B
param **.source_019.app[0].replyLength 20B
param **.source_019.app[0].thinkTime 0s
param **.source_019.app[0].numRequestsPerSession 77
param **.source_020.numApps 1
param **.source_020.app[0].typename "\"TcpBasicClientApp\""
param **.source_020.app[0].localAddress "\"\""
param **.source_020.app[0].connectAddress "\"sink_020\""
param **.source_020.app[0].connectPort 1100
param **.source_020.app[0].startTime 0s
param **.source_020.app[0].idleInterval 1000s
param **.source_020.app[0].requestLength 1300B
param **.source_020.app[0].replyLength 20B
param **.source_020.app[0].thinkTime 0s
param **.source_020.app[0].numRequestsPerSession 77
param **.source_021.numApps 1
param **.source_021.app[0].typename "\"TcpBasicClientApp\""
param **.source_021.app[0].localAddress "\"\""
param **.source_021.app[0].connectAddress "\"sink_021\""
param **.source_021.app[0].connectPort 1100
param **.source_021.app[0].startTime 0s
param **.source_021.app[0].idleInterval 1000s
param **.source_021.app[0].requestLength 1300B
param **.source_021.app[0].replyLength 20B
param **.source_021.app[0].thinkTime 0s
param **.source_021.app[0].numRequestsPerSession 77
param **.source_022.numApps 1
param **.source_022.app[0].typename "\"TcpBasicClientApp\""
param **.source_022.app[0].localAddress "\"\""
param **.source_022.app[0].connectAddress "\"sink_022\""
param **.source_022.app[0].connectPort 1100
param **.source_022.app[0].startTime 0s
param **.source_022.app[0].idleInterval 1000s
param **.source_022.app[0].requestLength 1300B
param **.source_022.app[0].replyLength 20B
param **.source_022.app[0].thinkTime 0s
param **.source_022.app[0].numRequestsPerSession 77
param **.source_023.numApps 1
param **.source_023.app[0].typename "\"TcpBasicClientApp\""
param **.source_023.app[0].localAddress "\"\""
param **.source_023.app[0].connectAddress "\"sink_023\""
param **.source_023.app[0].connectPort 1100
param **.source_023.app[0].startTime 0s
param **.source_023.app[0].idleInterval 1000s
param **.source_023.app[0].requestLength 1300B
param **.source_023.app[0].replyLength 20B
param **.source_023.app[0].thinkTime 0s
param **.source_023.app[0].numRequestsPerSession 77
param **.source_024.numApps 1
param **.source_024.app[0].typename "\"TcpBasicClientApp\""
param **.source_024.app[0].localAddress "\"\""
param **.source_024.app[0].connectAddress "\"sink_024\""
param **.source_024.app[0].connectPort 1100
param **.source_024.app[0].startTime 0s
param **.source_024.app[0].idleInterval 1000s
param **.source_024.app[0].requestLength 1300B
param **.source_024.app[0].replyLength 20B
param **.source_024.app[0].thinkTime 0s
param **.source_024.app[0].numRequestsPerSession 77
param **.source_025.numApps 1
param **.source_025.app[0].typename "\"TcpBasicClientApp\""
param **.source_025.app[0].localAddress "\"\""
param **.source_025.app[0].connectAddress "\"sink_025\""
param **.source_025.app[0].connectPort 1100
param **.source_025.app[0].startTime 0s
param **.source_025.app[0].idleInterval 1000s
param **.source_025.app[0].requestLength 1300B
param **.source_025.app[0].replyLength 20B
param **.source_025.app[0].thinkTime 0s
param **.source_025.app[0].numRequestsPerSession 77
param **.source_026.numApps 1
param **.source_026.app[0].typename "\"TcpBasicClientApp\""
param **.source_026.app[0].localAddress "\"\""
param **.source_026.app[0].connectAddress "\"sink_026\""
param **.source_026.app[0].connectPort 1100
param **.source_026.app[0].startTime 0s
param **.source_026.app[0].idleInterval 1000s
param **.source_026.app[0].requestLength 1300B
param **.source_026.app[0].replyLength 20B
param **.source_026.app[0].thinkTime 0s
param **.source_026.app[0].numRequestsPerSession 77
param **.source_027.numApps 1
param **.source_027.app[0].typename "\"TcpBasicClientApp\""
param **.source_027.app[0].localAddress "\"\""
param **.source_027.app[0].connectAddress "\"sink_027\""
param **.source_027.app[0].connectPort 1100
param **.source_027.app[0].startTime 0s
param **.source_027.app[0].idleInterval 1000s
param **.source_027.app[0].requestLength 1300B
param **.source_027.app[0].replyLength 20B
param **.source_027.app[0].thinkTime 0s
param **.source_027.app[0].numRequestsPerSession 77
param **.source_028.numApps 1
param **.source_028.app[0].typename "\"TcpBasicClientApp\""
param **.source_028.app[0].localAddress "\"\""
param **.source_028.app[0].connectAddress "\"sink_028\""
param **.source_028.app[0].connectPort 1100
param **.source_028.app[0].startTime 0s
param **.source_028.app[0].idleInterval 1000s
param **.source_028.app[0].requestLength 1300B
param **.source_028.app[0].replyLength 20B
param **.source_028.app[0].thinkTime 0s
param **.source_028.app[0].numRequestsPerSession 77
param **.source_029.numApps 1
param **.source_029.app[0].typename "\"TcpBasicClientApp\""
param **.source_029.app[0].localAddress "\"\""
param **.source_029.app[0].connectAddress "\"sink_029\""
param **.source_029.app[0].connectPort 1100
param **.source_029.app[0].startTime 0s
param **.source_029.app[0].idleInterval 1000s
param **.source_029.app[0].requestLength 1300B
param **.source_029.app[0].replyLength 20B
param **.source_029.app[0].thinkTime 0s
param **.source_029.app[0].numRequestsPerSession 77
param **.source_030.numApps 1
param **.source_030.app[0].typename "\"TcpBasicClientApp\""
param **.source_030.app[0].localAddress "\"\""
param **.source_030.app[0].connectAddress "\"sink_030\""
param **.source_030.app[0].connectPort 1100
param **.source_030.app[0].startTime 0s
param **.source_030.app[0].idleInterval 1000s
param **.source_030.app[0].requestLength 1300B
param **.source_030.app[0].replyLength 20B
param **.source_030.app[0].thinkTime 0s
param **.source_030.app[0].numRequestsPerSession 77
param **.source_031.numApps 1
param **.source_031.app[0].typename "\"TcpBasicClientApp\""
param **.source_031.app[0].localAddress "\"\""
param **.source_031.app[0].connectAddress "\"sink_031\""
param **.source_031.app[0].connectPort 1100
param **.source_031.app[0].startTime 0s
param **.source_031.app[0].idleInterval 1000s
param **.source_031.app[0].requestLength 1300B
param **.source_031.app[0].replyLength 20B
param **.source_031.app[0].thinkTime 0s
param **.source_031.app[0].numRequestsPerSession 77
param **.source_032.numApps 1
param **.source_032.app[0].typename "\"TcpBasicClientApp\""
param **.source_032.app[0].localAddress "\"\""
param **.source_032.app[0].connectAddress "\"sink_032\""
param **.source_032.app[0].connectPort 1100
param **.source_032.app[0].startTime 0s
param **.source_032.app[0].idleInterval 1000s
param **.source_032.app[0].requestLength 1300B
param **.source_032.app[0].replyLength 20B
param **.source_032.app[0].thinkTime 0s
param **.source_032.app[0].numRequestsPerSession 77
param **.source_033.numApps 1
param **.source_033.app[0].typename "\"TcpBasicClientApp\""
param **.source_033.app[0].localAddress "\"\""
param **.source_033.app[0].connectAddress "\"sink_033\""
param **.source_033.app[0].connectPort 1100
param **.source_033.app[0].startTime 0s
param **.source_033.app[0].idleInterval 1000s
param **.source_033.app[0].requestLength 1300B
param **.source_033.app[0].replyLength 20B
param **.source_033.app[0].thinkTime 0s
param **.source_033.app[0].numRequestsPerSession 77
param **.source_034.numApps 1
param **.source_034.app[0].typename "\"TcpBasicClientApp\""
param **.source_034.app[0].localAddress "\"\""
param **.source_034.app[0].connectAddress "\"sink_034\""
param **.source_034.app[0].connectPort 1100
param **.source_034.app[0].startTime 0s
param **.source_034.app[0].idleInterval 1000s
param **.source_034.app[0].requestLength 1300B
param **.source_034.app[0].replyLength 20B
param **.source_034.app[0].thinkTime 0s
param **.source_034.app[0].numRequestsPerSession 77
param **.source_035.numApps 1
param **.source_035.app[0].typename "\"TcpBasicClientApp\""
param **.source_035.app[0].localAddress "\"\""
param **.source_035.app[0].connectAddress "\"sink_035\""
param **.source_035.app[0].connectPort 1100
param **.source_035.app[0].startTime 0s
param **.source_035.app[0].idleInterval 1000s
param **.source_035.app[0].requestLength 1300B
param **.source_035.app[0].replyLength 20B
param **.source_035.app[0].thinkTime 0s
param **.source_035.app[0].numRequestsPerSession 77
param **.source_036.numApps 1
param **.source_036.app[0].typename "\"TcpBasicClientApp\""
param **.source_036.app[0].localAddress "\"\""
param **.source_036.app[0].connectAddress "\"sink_036\""
param **.source_036.app[0].connectPort 1100
param **.source_036.app[0].startTime 0s
param **.source_036.app[0].idleInterval 1000s
param **.source_036.app[0].requestLength 1300B
param **.source_036.app[0].replyLength 20B
param **.source_036.app[0].thinkTime 0s
param **.source_036.app[0].numRequestsPerSession 77
param **.source_037.numApps 1
param **.source_037.app[0].typename "\"TcpBasicClientApp\""
param **.source_037.app[0].localAddress "\"\""
param **.source_037.app[0].connectAddress "\"sink_037\""
param **.source_037.app[0].connectPort 1100
param **.source_037.app[0].startTime 0s
param **.source_037.app[0].idleInterval 1000s
param **.source_037.app[0].requestLength 1300B
param **.source_037.app[0].replyLength 20B
param **.source_037.app[0].thinkTime 0s
param **.source_037.app[0].numRequestsPerSession 77
param **.source_038.numApps 1
param **.source_038.app[0].typename "\"TcpBasicClientApp\""
param **.source_038.app[0].localAddress "\"\""
param **.source_038.app[0].connectAddress "\"sink_038\""
param **.source_038.app[0].connectPort 1100
param **.source_038.app[0].startTime 0s
param **.source_038.app[0].idleInterval 1000s
param **.source_038.app[0].requestLength 1300B
param **.source_038.app[0].replyLength 20B
param **.source_038.app[0].thinkTime 0s
param **.source_038.app[0].numRequestsPerSession 77
param **.source_039.numApps 1
param **.source_039.app[0].typename "\"TcpBasicClientApp\""
param **.source_039.app[0].localAddress "\"\""
param **.source_039.app[0].connectAddress "\"sink_039\""
param **.source_039.app[0].connectPort 1100
param **.source_039.app[0].startTime 0s
param **.source_039.app[0].idleInterval 1000s
param **.source_039.app[0].requestLength 1300B
param **.source_039.app[0].replyLength 20B
param **.source_039.app[0].thinkTime 0s
param **.source_039.app[0].numRequestsPerSession 77
param **.source_040.numApps 1
param **.source_040.app[0].typename "\"TcpBasicClientApp\""
param **.source_040.app[0].localAddress "\"\""
param **.source_040.app[0].connectAddress "\"sink_040\""
param **.source_040.app[0].connectPort 1100
param **.source_040.app[0].startTime 0s
param **.source_040.app[0].idleInterval 1000s
param **.source_040.app[0].requestLength 1300B
param **.source_040.app[0].replyLength 20B
param **.source_040.app[0].thinkTime 0s
param **.source_040.app[0].numRequestsPerSession 77
param **.source_041.numApps 1
param **.source_041.app[0].typename "\"TcpBasicClientApp\""
param **.source_041.app[0].localAddress "\"\""
param **.source_041.app[0].connectAddress "\"sink_041\""
param **.source_041.app[0].connectPort 1100
param **.source_041.app[0].startTime 0s
param **.source_041.app[0].idleInterval 1000s
param **.source_041.app[0].requestLength 1300B
param **.source_041.app[0].replyLength 20B
param **.source_041.app[0].thinkTime 0s
param **.source_041.app[0].numRequestsPerSession 77
param **.source_042.numApps 1
param **.source_042.app[0].typename "\"TcpBasicClientApp\""
param **.source_042.app[0].localAddress "\"\""
param **.source_042.app[0].connectAddress "\"sink_042\""
param **.source_042.app[0].connectPort 1100
param **.source_042.app[0].startTime 0s
param **.source_042.app[0].idleInterval 1000s
param **.source_042.app[0].requestLength 1300B
param **.source_042.app[0].replyLength 20B
param **.source_042.app[0].thinkTime 0s
param **.source_042.app[0].numRequestsPerSession 77
param **.source_043.numApps 1
param **.source_043.app[0].typename "\"TcpBasicClientApp\""
param **.source_043.app[0].localAddress "\"\""
param **.source_043.app[0].connectAddress "\"sink_043\""
param **.source_043.app[0].connectPort 1100
param **.source_043.app[0].startTime 0s
param **.source_043.app[0].idleInterval 1000s
param **.source_043.app[0].requestLength 1300B
param **.source_043.app[0].replyLength 20B
param **.source_043.app[0].thinkTime 0s
param **.source_043.app[0].numRequestsPerSession 77
param **.source_044.numApps 1
param **.source_044.app[0].typename "\"TcpBasicClientApp\""
param **.source_044.app[0].localAddress "\"\""
param **.source_044.app[0].connectAddress "\"sink_044\""
param **.source_044.app[0].connectPort 1100
param **.source_044.app[0].startTime 0s
param **.source_044.app[0].idleInterval 1000s
param **.source_044.app[0].requestLength 1300B
param **.source_044.app[0].replyLength 20B
param **.source_044.app[0].thinkTime 0s
param **.source_044.app[0].numRequestsPerSession 77
param **.source_045.numApps 1
param **.source_045.app[0].typename "\"TcpBasicClientApp\""
param **.source_045.app[0].localAddress "\"\""
param **.source_045.app[0].connectAddress "\"sink_045\""
param **.source_045.app[0].connectPort 1100
param **.source_045.app[0].startTime 0s
param **.source_045.app[0].idleInterval 1000s
param **.source_045.app[0].requestLength 1300B
param **.source_045.app[0].replyLength 20B
param **.source_045.app[0].thinkTime 0s
param **.source_045.app[0].numRequestsPerSession 77
param **.source_046.numApps 1
param **.source_046.app[0].typename "\"TcpBasicClientApp\""
param **.source_046.app[0].localAddress "\"\""
param **.source_046.app[0].connectAddress "\"sink_046\""
param **.source_046.app[0].connectPort 1100
param **.source_046.app[0].startTime 0s
param **.source_046.app[0].idleInterval 1000s
param **.source_046.app[0].requestLength 1300B
param **.source_046.app[0].replyLength 20B
param **.source_046.app[0].thinkTime 0s
param **.source_046.app[0].numRequestsPerSession 77
param **.source_047.numApps 1
param **.source_047.app[0].typename "\"TcpBasicClientApp\""
param **.source_047.app[0].localAddress "\"\""
param **.source_047.app[0].connectAddress "\"sink_047\""
param **.source_047.app[0].connectPort 1100
param **.source_047.app[0].startTime 0s
param **.source_047.app[0].idleInterval 1000s
param **.source_047.app[0].requestLength 1300B
param **.source_047.app[0].replyLength 20B
param **.source_047.app[0].thinkTime 0s
param **.source_047.app[0].numRequestsPerSession 77
param **.source_048.numApps 1
param **.source_048.app[0].typename "\"TcpBasicClientApp\""
param **.source_048.app[0].localAddress "\"\""
param **.source_048.app[0].connectAddress "\"sink_048\""
param **.source_048.app[0].connectPort 1100
param **.source_048.app[0].startTime 0s
param **.source_048.app[0].idleInterval 1000s
param **.source_048.app[0].requestLength 1300B
param **.source_048.app[0].replyLength 20B
param **.source_048.app[0].thinkTime 0s
param **.source_048.app[0].numRequestsPerSession 77
param **.source_049.numApps 1
param **.source_049.app[0].typename "\"TcpBasicClientApp\""
param **.source_049.app[0].localAddress "\"\""
param **.source_049.app[0].connectAddress "\"sink_049\""
param **.source_049.app[0].connectPort 1100
param **.source_049.app[0].startTime 0s
param **.source_049.app[0].idleInterval 1000s
param **.source_049.app[0].requestLength 1300B
param **.source_049.app[0].replyLength 20B
param **.source_049.app[0].thinkTime 0s
param **.source_049.app[0].numRequestsPerSession 77
param **.source_050.numApps 1
param **.source_050.app[0].typename "\"TcpBasicClientApp\""
param **.source_050.app[0].localAddress "\"\""
param **.source_050.app[0].connectAddress "\"sink_050\""
param **.source_050.app[0].connectPort 1100
param **.source_050.app[0].startTime 0s
param **.source_050.app[0].idleInterval 1000s
param **.source_050.app[0].requestLength 1300B
param **.source_050.app[0].replyLength 20B
param **.source_050.app[0].thinkTime 0s
param **.source_050.app[0].numRequestsPerSession 77
param **.source_051.numApps 1
param **.source_051.app[0].typename "\"TcpBasicClientApp\""
param **.source_051.app[0].localAddress "\"\""
param **.source_051.app[0].connectAddress "\"sink_051\""
param **.source_051.app[0].connectPort 1100
param **.source_051.app[0].startTime 0s
param **.source_051.app[0].idleInterval 1000s
param **.source_051.app[0].requestLength 1300B
param **.source_051.app[0].replyLength 20B
param **.source_051.app[0].thinkTime 0s
param **.source_051.app[0].numRequestsPerSession 77
param **.source_052.numApps 1
param **.source_052.app[0].typename "\"TcpBasicClientApp\""
param **.source_052.app[0].localAddress "\"\""
param **.source_052.app[0].connectAddress "\"sink_052\""
param **.source_052.app[0].connectPort 1100
param **.source_052.app[0].startTime 0s
param **.source_052.app[0].idleInterval 1000s
param **.source_052.app[0].requestLength 1300B
param **.source_052.app[0].replyLength 20B
param **.source_052.app[0].thinkTime 0s
param **.source_052.app[0].numRequestsPerSession 77
param **.source_053.numApps 1
param **.source_053.app[0].typename "\"TcpBasicClientApp\""
param **.source_053.app[0].localAddress "\"\""
param **.source_053.app[0].connectAddress "\"sink_053\""
param **.source_053.app[0].connectPort 1100
param **.source_053.app[0].startTime 0s
param **.source_053.app[0].idleInterval 1000s
param **.source_053.app[0].requestLength 1300B
param **.source_053.app[0].replyLength 20B
param **.source_053.app[0].thinkTime 0s
param **.source_053.app[0].numRequestsPerSession 77
param **.source_054.numApps 1
param **.source_054.app[0].typename "\"TcpBasicClientApp\""
param **.source_054.app[0].localAddress "\"\""
param **.source_054.app[0].connectAddress "\"sink_054\""
param **.source_054.app[0].connectPort 1100
param **.source_054.app[0].startTime 0s
param **.source_054.app[0].idleInterval 1000s
param **.source_054.app[0].requestLength 1300B
param **.source_054.app[0].replyLength 20B
param **.source_054.app[0].thinkTime 0s
param **.source_054.app[0].numRequestsPerSession 77
param **.source_055.numApps 1
param **.source_055.app[0].typename "\"TcpBasicClientApp\""
param **.source_055.app[0].localAddress "\"\""
param **.source_055.app[0].connectAddress "\"sink_055\""
param **.source_055.app[0].connectPort 1100
param **.source_055.app[0].startTime 0s
param **.source_055.app[0].idleInterval 1000s
param **.source_055.app[0].requestLength 1300B
param **.source_055.app[0].replyLength 20B
param **.source_055.app[0].thinkTime 0s
param **.source_055.app[0].numRequestsPerSession 77
param **.source_056.numApps 1
param **.source_056.app[0].typename "\"TcpBasicClientApp\""
param **.source_056.app[0].localAddress "\"\""
param **.source_056.app[0].connectAddress "\"sink_056\""
param **.source_056.app[0].connectPort 1100
param **.source_056.app[0].startTime 0s
param **.source_056.app[0].idleInterval 1000s
param **.source_056.app[0].requestLength 1300B
param **.source_056.app[0].replyLength 20B
param **.source_056.app[0].thinkTime 0s
param **.source_056.app[0].numRequestsPerSession 77
param **.source_057.numApps 1
param **.source_057.app[0].typename "\"TcpBasicClientApp\""
param **.source_057.app[0].localAddress "\"\""
param **.source_057.app[0].connectAddress "\"sink_057\""
param **.source_057.app[0].connectPort 1100
param **.source_057.app[0].startTime 0s
param **.source_057.app[0].idleInterval 1000s
param **.source_057.app[0].requestLength 1300B
param **.source_057.app[0].replyLength 20B
param **.source_057.app[0].thinkTime 0s
param **.source_057.app[0].numRequestsPerSession 77
param **.source_058.numApps 1
param **.source_058.app[0].typename "\"TcpBasicClientApp\""
param **.source_058.app[0].localAddress "\"\""
param **.source_058.app[0].connectAddress "\"sink_058\""
param **.source_058.app[0].connectPort 1100
param **.source_058.app[0].startTime 0s
param **.source_058.app[0].idleInterval 1000s
param **.source_058.app[0].requestLength 1300B
param **.source_058.app[0].replyLength 20B
param **.source_058.app[0].thinkTime 0s
param **.source_058.app[0].numRequestsPerSession 77
param **.source_059.numApps 1
param **.source_059.app[0].typename "\"TcpBasicClientApp\""
param **.source_059.app[0].localAddress "\"\""
param **.source_059.app[0].connectAddress "\"sink_059\""
param **.source_059.app[0].connectPort 1100
param **.source_059.app[0].startTime 0s
param **.source_059.app[0].idleInterval 1000s
param **.source_059.app[0].requestLength 1300B
param **.source_059.app[0].replyLength 20B
param **.source_059.app[0].thinkTime 0s
param **.source_059.app[0].numRequestsPerSession 77
param **.source_060.numApps 1
param **.source_060.app[0].typename "\"TcpBasicClientApp\""
param **.source_060.app[0].localAddress "\"\""
param **.source_060.app[0].connectAddress "\"sink_060\""
param **.source_060.app[0].connectPort 1100
param **.source_060.app[0].startTime 0s
param **.source_060.app[0].idleInterval 1000s
param **.source_060.app[0].requestLength 1300B
param **.source_060.app[0].replyLength 20B
param **.source_060.app[0].thinkTime 0s
param **.source_060.app[0].numRequestsPerSession 77
param **.source_061.numApps 1
param **.source_061.app[0].typename "\"TcpBasicClientApp\""
param **.source_061.app[0].localAddress "\"\""
param **.source_061.app[0].connectAddress "\"sink_061\""
param **.source_061.app[0].connectPort 1100
param **.source_061.app[0].startTime 0s
param **.source_061.app[0].idleInterval 1000s
param **.source_061.app[0].requestLength 1300B
param **.source_061.app[0].replyLength 20B
param **.source_061.app[0].thinkTime 0s
param **.source_061.app[0].numRequestsPerSession 77
param **.source_062.numApps 1
param **.source_062.app[0].typename "\"TcpBasicClientApp\""
param **.source_062.app[0].localAddress "\"\""
param **.source_062.app[0].connectAddress "\"sink_062\""
param **.source_062.app[0].connectPort 1100
param **.source_062.app[0].startTime 0s
param **.source_062.app[0].idleInterval 1000s
param **.source_062.app[0].requestLength 1300B
param **.source_062.app[0].replyLength 20B
param **.source_062.app[0].thinkTime 0s
param **.source_062.app[0].numRequestsPerSession 77
param **.source_063.numApps 1
param **.source_063.app[0].typename "\"TcpBasicClientApp\""
param **.source_063.app[0].localAddress "\"\""
param **.source_063.app[0].connectAddress "\"sink_063\""
param **.source_063.app[0].connectPort 1100
param **.source_063.app[0].startTime 0s
param **.source_063.app[0].idleInterval 1000s
param **.source_063.app[0].requestLength 1300B
param **.source_063.app[0].replyLength 20B
param **.source_063.app[0].thinkTime 0s
param **.source_063.app[0].numRequestsPerSession 77
param **.source_064.numApps 1
param **.source_064.app[0].typename "\"TcpBasicClientApp\""
param **.source_064.app[0].localAddress "\"\""
param **.source_064.app[0].connectAddress "\"sink_064\""
param **.source_064.app[0].connectPort 1100
param **.source_064.app[0].startTime 0s
param **.source_064.app[0].idleInterval 1000s
param **.source_064.app[0].requestLength 1300B
param **.source_064.app[0].replyLength 20B
param **.source_064.app[0].thinkTime 0s
param **.source_064.app[0].numRequestsPerSession 77
param **.source_065.numApps 1
param **.source_065.app[0].typename "\"TcpBasicClientApp\""
param **.source_065.app[0].localAddress "\"\""
param **.source_065.app[0].connectAddress "\"sink_065\""
param **.source_065.app[0].connectPort 1100
param **.source_065.app[0].startTime 0s
param **.source_065.app[0].idleInterval 1000s
param **.source_065.app[0].requestLength 1300B
param **.source_065.app[0].replyLength 20B
param **.source_065.app[0].thinkTime 0s
param **.source_065.app[0].numRequestsPerSession 77
param **.source_066.numApps 1
param **.source_066.app[0].typename "\"TcpBasicClientApp\""
param **.source_066.app[0].localAddress "\"\""
param **.source_066.app[0].connectAddress "\"sink_066\""
param **.source_066.app[0].connectPort 1100
param **.source_066.app[0].startTime 0s
param **.source_066.app[0].idleInterval 1000s
param **.source_066.app[0].requestLength 1300B
param **.source_066.app[0].replyLength 20B
param **.source_066.app[0].thinkTime 0s
param **.source_066.app[0].numRequestsPerSession 77
param **.source_067.numApps 1
param **.source_067.app[0].typename "\"TcpBasicClientApp\""
param **.source_067.app[0].localAddress "\"\""
param **.source_067.app[0].connectAddress "\"sink_067\""
param **.source_067.app[0].connectPort 1100
param **.source_067.app[0].startTime 0s
param **.source_067.app[0].idleInterval 1000s
param **.source_067.app[0].requestLength 1300B
param **.source_067.app[0].replyLength 20B
param **.source_067.app[0].thinkTime 0s
param **.source_067.app[0].numRequestsPerSession 77
param **.source_068.numApps 1
param **.source_068.app[0].typename "\"TcpBasicClientApp\""
param **.source_068.app[0].localAddress "\"\""
param **.source_068.app[0].connectAddress "\"sink_068\""
param **.source_068.app[0].connectPort 1100
param **.source_068.app[0].startTime 0s
param **.source_068.app[0].idleInterval 1000s
param **.source_068.app[0].requestLength 1300B
param **.source_068.app[0].replyLength 20B
param **.source_068.app[0].thinkTime 0s
param **.source_068.app[0].numRequestsPerSession 77
param **.source_069.numApps 1
param **.source_069.app[0].typename "\"TcpBasicClientApp\""
param **.source_069.app[0].localAddress "\"\""
param **.source_069.app[0].connectAddress "\"sink_069\""
param **.source_069.app[0].connectPort 1100
param **.source_069.app[0].startTime 0s
param **.source_069.app[0].idleInterval 1000s
param **.source_069.app[0].requestLength 1300B
param **.source_069.app[0].replyLength 20B
param **.source_069.app[0].thinkTime 0s
param **.source_069.app[0].numRequestsPerSession 77
param **.source_070.numApps 1
param **.source_070.app[0].typename "\"TcpBasicClientApp\""
param **.source_070.app[0].localAddress "\"\""
param **.source_070.app[0].connectAddress "\"sink_070\""
param **.source_070.app[0].connectPort 1100
param **.source_070.app[0].startTime 0s
param **.source_070.app[0].idleInterval 1000s
param **.source_070.app[0].requestLength 1300B
param **.source_070.app[0].replyLength 20B
param **.source_070.app[0].thinkTime 0s
param **.source_070.app[0].numRequestsPerSession 77
param **.source_071.numApps 1
param **.source_071.app[0].typename "\"TcpBasicClientApp\""
param **.source_071.app[0].localAddress "\"\""
param **.source_071.app[0].connectAddress "\"sink_071\""
param **.source_071.app[0].connectPort 1100
param **.source_071.app[0].startTime 0s
param **.source_071.app[0].idleInterval 1000s
param **.source_071.app[0].requestLength 1300B
param **.source_071.app[0].replyLength 20B
param **.source_071.app[0].thinkTime 0s
param **.source_071.app[0].numRequestsPerSession 77
param **.source_072.numApps 1
param **.source_072.app[0].typename "\"TcpBasicClientApp\""
param **.source_072.app[0].localAddress "\"\""
param **.source_072.app[0].connectAddress "\"sink_072\""
param **.source_072.app[0].connectPort 1100
param **.source_072.app[0].startTime 0s
param **.source_072.app[0].idleInterval 1000s
param **.source_072.app[0].requestLength 1300B
param **.source_072.app[0].replyLength 20B
param **.source_072.app[0].thinkTime 0s
param **.source_072.app[0].numRequestsPerSession 77
param **.source_073.numApps 1
param **.source_073.app[0].typename "\"TcpBasicClientApp\""
param **.source_073.app[0].localAddress "\"\""
param **.source_073.app[0].connectAddress "\"sink_073\""
param **.source_073.app[0].connectPort 1100
param **.source_073.app[0].startTime 0s
param **.source_073.app[0].idleInterval 1000s
param **.source_073.app[0].requestLength 1300B
param **.source_073.app[0].replyLength 20B
param **.source_073.app[0].thinkTime 0s
param **.source_073.app[0].numRequestsPerSession 77
param **.source_074.numApps 1
param **.source_074.app[0].typename "\"TcpBasicClientApp\""
param **.source_074.app[0].localAddress "\"\""
param **.source_074.app[0].connectAddress "\"sink_074\""
param **.source_074.app[0].connectPort 1100
param **.source_074.app[0].startTime 0s
param **.source_074.app[0].idleInterval 1000s
param **.source_074.app[0].requestLength 1300B
param **.source_074.app[0].replyLength 20B
param **.source_074.app[0].thinkTime 0s
param **.source_074.app[0].numRequestsPerSession 77
param **.source_075.numApps 1
param **.source_075.app[0].typename "\"TcpBasicClientApp\""
param **.source_075.app[0].localAddress "\"\""
param **.source_075.app[0].connectAddress "\"sink_075\""
param **.source_075.app[0].connectPort 1100
param **.source_075.app[0].startTime 0s
param **.source_075.app[0].idleInterval 1000s
param **.source_075.app[0].requestLength 1300B
param **.source_075.app[0].replyLength 20B
param **.source_075.app[0].thinkTime 0s
param **.source_075.app[0].numRequestsPerSession 77
param **.source_076.numApps 1
param **.source_076.app[0].typename "\"TcpBasicClientApp\""
param **.source_076.app[0].localAddress "\"\""
param **.source_076.app[0].connectAddress "\"sink_076\""
param **.source_076.app[0].connectPort 1100
param **.source_076.app[0].startTime 0s
param **.source_076.app[0].idleInterval 1000s
param **.source_076.app[0].requestLength 1300B
param **.source_076.app[0].replyLength 20B
param **.source_076.app[0].thinkTime 0s
param **.source_076.app[0].numRequestsPerSession 77
param **.source_077.numApps 1
param **.source_077.app[0].typename "\"TcpBasicClientApp\""
param **.source_077.app[0].localAddress "\"\""
param **.source_077.app[0].connectAddress "\"sink_077\""
param **.source_077.app[0].connectPort 1100
param **.source_077.app[0].startTime 0s
param **.source_077.app[0].idleInterval 1000s
param **.source_077.app[0].requestLength 1300B
param **.source_077.app[0].replyLength 20B
param **.source_077.app[0].thinkTime 0s
param **.source_077.app[0].numRequestsPerSession 77
param **.source_078.numApps 1
param **.source_078.app[0].typename "\"TcpBasicClientApp\""
param **.source_078.app[0].localAddress "\"\""
param **.source_078.app[0].connectAddress "\"sink_078\""
param **.source_078.app[0].connectPort 1100
param **.source_078.app[0].startTime 0s
param **.source_078.app[0].idleInterval 1000s
param **.source_078.app[0].requestLength 1300B
param **.source_078.app[0].replyLength 20B
param **.source_078.app[0].thinkTime 0s
param **.source_078.app[0].numRequestsPerSession 77
param **.source_079.numApps 1
param **.source_079.app[0].typename "\"TcpBasicClientApp\""
param **.source_079.app[0].localAddress "\"\""
param **.source_079.app[0].connectAddress "\"sink_079\""
param **.source_079.app[0].connectPort 1100
param **.source_079.app[0].startTime 0s
param **.source_079.app[0].idleInterval 1000s
param **.source_079.app[0].requestLength 1300B
param **.source_079.app[0].replyLength 20B
param **.source_079.app[0].thinkTime 0s
param **.source_079.app[0].numRequestsPerSession 77
param **.tcp.mss 1400
param **.tcp.tcpAlgorithmClass "\"TcpReno\""
param **.tcp.crcMode "\"computed\""
param **.app[*].dataTransferMode "\"object\""

vector 0 Jellyfish_16_4_3__fvj_flat_traffic_baseline_seed3_jitter.source_000.app[0] numActiveSessions:vector ETV
attr interpolationmode sample-hold
attr source sum(connect)
attr title "number of active sessions, vector"
vector 1 Jellyfish_16_4_3__fvj_flat_traffic_baseline_seed3_jitter.source_001.app[0] numActiveSessions:vector ETV
attr interpolationmode sample-hold
attr source sum(connect)
attr title "number of active sessions, vector"
vector 2 Jellyfish_16_4_3__fvj_flat_traffic_baseline_seed3_jitter.source_002.app[0] numActiveSessions:vector ETV
attr interpolationmode sample-hold
attr source sum(connect)
attr title "number of active sessions, vector"
vector 3 Jellyfish_16_4_3__fvj_flat_traffic_baseline_seed3_jitter.source_003.app[0] numActiveSessions:vector ETV
attr interpolationmode sample-hold
attr source sum(connect)
attr title "number of active sessions, vector"
vector 4 Jellyfish_16_4_3__fvj_flat_traffic_baseline_seed3_jitter.source_004.app[0] numActiveSessions:vector ETV
attr interpolationmode sample-hold
attr source sum(connect)
attr title "number of active sessions, vector"
vector 5 Jellyfish_16_4_3__fvj_flat_traffic_baseline_seed3_jitter.source_005.app[0] numActiveSessions:vector ETV
attr interpolationmode sample-hold
attr source sum(connect)
attr title "number of active sessions, vector"
vector 6 Jellyfish_16_4_3__fvj_flat_traffic_baseline_seed3_jitter.source_006.app[0] numActiveSessions:vector ETV
attr interpolationmode sample-hold
attr source sum(connect)
attr title "number of active sessions, vector"
vector 7 Jellyfish_16_4_3__fvj_flat_traffic_baseline_seed3_jitter.source_007.app[0] numActiveSessions:vector ETV
attr interpolationmode sample-hold
attr source sum(connect)
attr title "number of active sessions, vector"
vector 8 Jellyfish_16_4_3__fvj_flat_traffic_baseline_seed3_jitter.source_008.app[0] numActiveSessions:vector ETV
attr interpolationmode sample-hold
attr source sum(connect)
attr title "number of active sessions, vector"
vector 9 Jellyfish_16_4_3__fvj_flat_traffic_baseline_seed3_jitter.source_009.app[0] numActiveSessions:vector ETV
attr interpolationmode sample-hold
attr source sum(connect)
attr title "number of active sessions, vector"
vector 10 Jellyfish_16_4_3__fvj_flat_traffic_baseline_seed3_jitter.source_010.app[0] numActiveSessions:vector ETV
attr interpolationmode sample-hold
attr source sum(connect)
attr title "number of active sessions, vector"
vector 11 Jellyfish_16_4_3__fvj_flat_traffic_baseline_seed3_jitter.source_011.app[0] numActiveSessions:vector ETV
attr interpolationmode sample-hold
attr source sum(connect)
attr title "number of active sessions, vector"
vector 12 Jellyfish_16_4_3__fvj_flat_traffic_baseline_seed3_jitter.source_012.app[0] numActiveSessions:vector ETV
attr interpolationmode sample-hold
attr source sum(connect)
attr title "number of active sessions, vector"
vector 13 Jellyfish_16_4_3__fvj_flat_traffic_baseline_seed3_jitter.source_013.app[0] numActiveSessions:vector ETV
attr interpolationmode sample-hold
attr source sum(connect)
attr title "number of active sessions, vector"
vector 14 Jellyfish_16_4_3__fvj_flat_traffic_baseline_seed3_jitter.source_014.app[0] numActiveSessions:vector ETV
attr interpolationmode sample-hold
attr source sum(connect)
attr title "number of active sessions, vector"
vector 15 Jellyfish_16_4_3__fvj_flat_traffic_baseline_seed3_jitter.source_015.app[0] numActiveSessions:vector ETV
attr interpolationmode sample-hold
attr source sum(connect)
attr title "number of active sessions, vector"
vector 16 Jellyfish_16_4_3__fvj_flat_traffic_baseline_seed3_jitter.source_016.app[0] numActiveSessions:vector ETV
attr interpolationmode sample-hold
attr source sum(connect)
attr title "number of active sessions, vector"
vector 17 Jellyfish_16_4_3__fvj_flat_traffic_baseline_seed3_jitter.source_017.app[0] numActiveSessions:vector ETV
attr interpolationmode sample-hold
attr source sum(connect)
attr title "number of active sessions, vector"
vector 18 Jellyfish_16_4_3__fvj_flat_traffic_baseline_seed3_jitter.source_018.app[0] numActiveSessions:vector ETV
attr interpolationmode sample-hold
attr source sum(connect)
attr title "number of active sessions, vector"
vector 19 Jellyfish_16_4_3__fvj_flat_traffic_baseline_seed3_jitter.source_019.app[0] numActiveSessions:vector ETV
attr interpolationmode sample-hold
attr source sum(connect)
attr title "number of active sessions, vector"
vector 20 Jellyfish_16_4_3__fvj_flat_traffic_baseline_seed3_jitter.source_020.app[0] numActiveSessions:vector ETV
attr interpolationmode sample-hold
attr source sum(connect)
attr title "number of active sessions, vector"
vector 21 Jellyfish_16_4_3__fvj_flat_traffic_baseline_seed3_jitter.source_021.app[0] numActiveSessions:vector ETV
attr interpolationmode sample-hold
attr source sum(connect)
attr title "number of active sessions, vector"
vector 22 Jellyfish_16_4_3__fvj_flat_traffic_baseline_seed3_jitter.source_022.app[0] numActiveSessions:vector ETV
attr interpolationmode sample-hold
attr source sum(connect)
attr title "number of active sessions, vector"
vector 23 Jellyfish_16_4_3__fvj_flat_traffic_baseline_seed3_jitter.source_023.app[0] numActiveSessions:vector ETV
attr interpolationmode sample-hold
attr source sum(connect)
attr title "number of active sessions, vector"
vector 24 Jellyfish_16_4_3__fvj_flat_traffic_baseline_seed3_jitter.source_024.app[0] numActiveSessions:vector ETV
attr interpolationmode sample-hold
attr source sum(connect)
attr title "number of active sessions, vector"
vector 25 Jellyfish_16_4_3__fvj_flat_traffic_baseline_seed3_jitter.source_025.app[0] numActiveSessions:vector ETV
attr interpolationmode sample-hold
attr source sum(connect)
attr title "number of active sessions, vector"
vector 26 Jellyfish_16_4_3__fvj_flat_traffic_baseline_seed3_jitter.source_026.app[0] numActiveSessions:vector ETV
attr interpolationmode sample-hold
attr source sum(connect)
attr title "number of active sessions, vector"
vector 27 Jellyfish_16_4_3__fvj_flat_traffic_baseline_seed3_jitter.source_027.app[0] numActiveSessions:vector ETV
attr interpolationmode sample-hold
attr source sum(connect)
attr title "number of active sessions, vector"
vector 28 Jellyfish_16_4_3__fvj_flat_traffic_baseline_seed3_jitter.source_028.app[0] numActiveSessions:vector ETV
attr interpolationmode sample-hold
attr source sum(connect)
attr title "number of active sessions, vector"
vector 29 Jellyfish_16_4_3__fvj_flat_traffic_baseline_seed3_jitter.source_029.app[0] numActiveSessions:vector ETV
attr interpolationmode sample-hold
attr source sum(connect)
attr title "number of active sessions, vector"
vector 30 Jellyfish_16_4_3__fvj_flat_traffic_baseline_seed3_jitter.source_030.app[0] numActiveSessions:vector ETV
attr interpolationmode sample-hold
attr source sum(connect)
attr title "number of active sessions, vector"
vector 31 Jellyfish_16_4_3__fvj_flat_traffic_baseline_seed3_jitter.source_031.app[0] numActiveSessions:vector ETV
attr interpolationmode sample-hold
attr source sum(connect)
attr title "number of active sessions, vector"
vector 32 Jellyfish_16_4_3__fvj_flat_traffic_baseline_seed3_jitter.source_032.app[0] numActiveSessions:vector ETV
attr interpolationmode sample-hold
attr source sum(connect)
attr title "number of active sessions, vector"
vector 33 Jellyfish_16_4_3__fvj_flat_traffic_baseline_seed3_jitter.source_033.app[0] numActiveSessions:vector ETV
attr interpolationmode sample-hold
attr source sum(connect)
attr title "number of active sessions, vector"
vector 34 Jellyfish_16_4_3__fvj_flat_traffic_baseline_seed3_jitter.source_034.app[0] numActiveSessions:vector ETV
attr interpolationmode sample-hold
attr source sum(connect)
attr title "number of active sessions, vector"
vector 35 Jellyfish_16_4_3__fvj_flat_traffic_baseline_seed3_jitter.source_035.app[0] numActiveSessions:vector ETV
attr interpolationmode sample-hold
attr source sum(connect)
attr title "number of active sessions, vector"
vector 36 Jellyfish_16_4_3__fvj_flat_traffic_baseline_seed3_jitter.source_036.app[0] numActiveSessions:vector ETV
attr interpolationmode sample-hold
attr source sum(connect)
attr title "number of active sessions, vector"
vector 37 Jellyfish_16_4_3__fvj_flat_traffic_baseline_seed3_jitter.source_037.app[0] numActiveSessions:vector ETV
attr interpolationmode sample-hold
attr source sum(connect)
attr title "number of active sessions, vector"
vector 38 Jellyfish_16_4_3__fvj_flat_traffic_baseline_seed3_jitter.source_038.app[0] numActiveSessions:vector ETV
attr interpolationmode sample-hold
attr source sum(connect)
attr title "number of active sessions, vector"
vector 39 Jellyfish_16_4_3__fvj_flat_traffic_baseline_seed3_jitter.source_039.app[0] numActiveSessions:vector ETV
attr interpolationmode sample-hold
attr source sum(connect)
attr title "number of active sessions, vector"
vector 40 Jellyfish_16_4_3__fvj_flat_traffic_baseline_seed3_jitter.source_040.app[0] numActiveSessions:vector ETV
attr interpolationmode sample-hold
attr source sum(connect)
attr title "number of active sessions, vector"
vector 41 Jellyfish_16_4_3__fvj_flat_traffic_baseline_seed3_jitter.source_041.app[0] numActiveSessions:vector ETV
attr interpolationmode sample-hold
attr source sum(connect)
attr title "number of active sessions, vector"
vector 42 Jellyfish_16_4_3__fvj_flat_traffic_baseline_seed3_jitter.source_042.app[0] numActiveSessions:vector ETV
attr interpolationmode sample-hold
attr source sum(connect)
attr title "number of active sessions, vector"
vector 43 Jellyfish_16_4_3__fvj_flat_traffic_baseline_seed3_jitter.source_043.app[0] numActiveSessions:vector ETV
attr interpolationmode sample-hold
attr source sum(connect)
attr title "number of active sessions, vector"
vector 44 Jellyfish_16_4_3__fvj_flat_traffic_baseline_seed3_jitter.source_044.app[0] numActiveSessions:vector ETV
attr interpolationmode sample-hold
attr source sum(connect)
attr title "number of active sessions, vector"
vector 45 Jellyfish_16_4_3__fvj_flat_traffic_baseline_seed3_jitter.source_045.app[0] numActiveSessions:vector ETV
attr interpolationmode sample-hold
attr source sum(connect)
attr title "number of active sessions, vector"
vector 46 Jellyfish_16_4_3__fvj_flat_traffic_baseline_seed3_jitter.source_046.app[0] numActiveSessions:vector ETV
attr interpolationmode sample-hold
attr source sum(connect)
attr title "number of active sessions, vector"
vector 47 Jellyfish_16_4_3__fvj_flat_traffic_baseline_seed3_jitter.source_047.app[0] numActiveSessions:vector ETV
attr interpolationmode sample-hold
attr source sum(connect)
attr title "number of active sessions, vector"
vector 48 Jellyfish_16_4_3__fvj_flat_traffic_baseline_seed3_jitter.source_048.app[0] numActiveSessions:vector ETV
attr interpolationmode sample-hold
attr source sum(connect)
attr title "number of active sessions, vector"
vector 49 Jellyfish_16_4_3__fvj_flat_traffic_baseline_seed3_jitter.source_049.app[0] numActiveSessions:vector ETV
attr interpolationmode sample-hold
attr source sum(connect)
attr title "number of active sessions, vector"
vector 50 Jellyfish_16_4_3__fvj_flat_traffic_baseline_seed3_jitter.source_050.app[0] numActiveSessions:vector ETV
attr interpolationmode sample-hold
attr source sum(connect)
attr title "number of active sessions, vector"
vector 51 Jellyfish_16_4_3__fvj_flat_traffic_baseline_seed3_jitter.source_051.app[0] numActiveSessions:vector ETV
attr interpolationmode sample-hold
attr source sum(connect)
attr title "number of active sessions, vector"
vector 52 Jellyfish_16_4_3__fvj_flat_traffic_baseline_seed3_jitter.source_052.app[0] numActiveSessions:vector ETV
attr interpolationmode sample-hold
attr source sum(connect)
attr title "number of active sessions, vector"
vector 53 Jellyfish_16_4_3__fvj_flat_traffic_baseline_seed3_jitter.source_053.app[0] numActiveSessions:vector ETV
attr interpolationmode sample-hold
attr source sum(connect)
attr title "number of active sessions, vector"
vector 54 Jellyfish_16_4_3__fvj_flat_traffic_baseline_seed3_jitter.source_054.app[0] numActiveSessions:vector ETV
attr interpolationmode sample-hold
attr source sum(connect)
attr title "number of active sessions, vector"
vector 55 Jellyfish_16_4_3__fvj_flat_traffic_baseline_seed3_jitter.source_055.app[0] numActiveSessions:vector ETV
attr interpolationmode sample-hold
attr source sum(connect)
attr title "number of active sessions, vector"
vector 56 Jellyfish_16_4_3__fvj_flat_traffic_baseline_seed3_jitter.source_056.app[0] numActiveSessions:vector ETV
attr interpolationmode sample-hold
attr source sum(connect)
attr title "number of active sessions, vector"
vector 57 Jellyfish_16_4_3__fvj_flat_traffic_baseline_seed3_jitter.source_057.app[0] numActiveSessions:vector ETV
attr interpolationmode sample-hold
attr source sum(connect)
attr title "number of active sessions, vector"
vector 58 Jellyfish_16_4_3__fvj_flat_traffic_baseline_seed3_jitter.source_058.app[0] numActiveSessions:vector ETV
attr interpolationmode sample-hold
attr source sum(connect)
attr title "number of active sessions, vector"
vector 59 Jellyfish_16_4_3__fvj_flat_traffic_baseline_seed3_jitter.source_059.app[0] numActiveSessions:vector ETV
attr interpolationmode sample-hold
attr source sum(connect)
attr title "number of active sessions, vector"
vector 60 Jellyfish_16_4_3__fvj_flat_traffic_baseline_seed3_jitter.source_060.app[0] numActiveSessions:vector ETV
attr interpolationmode sample-hold
attr source sum(connect)
attr title "number of active sessions, vector"
vector 61 Jellyfish_16_4_3__fvj_flat_traffic_baseline_seed3_jitter.source_061.app[0] numActiveSessions:vector ETV
attr interpolationmode sample-hold
attr source sum(connect)
attr title "number of active sessions, vector"
vector 62 Jellyfish_16_4_3__fvj_flat_traffic_baseline_seed3_jitter.source_062.app[0] numActiveSessions:vector ETV
attr interpolationmode sample-hold
attr source sum(connect)
attr title "number of active sessions, vector"
vector 63 Jellyfish_16_4_3__fvj_flat_traffic_baseline_seed3_jitter.source_063.app[0] numActiveSessions:vector ETV
attr interpolationmode sample-hold
attr source sum(connect)
attr title "number of active sessions, vector"
vector 64 Jellyfish_16_4_3__fvj_flat_traffic_baseline_seed3_jitter.source_064.app[0] numActiveSessions:vector ETV
attr interpolationmode sample-hold
attr source sum(connect)
attr title "number of active sessions, vector"
vector 65 Jellyfish_16_4_3__fvj_flat_traffic_baseline_seed3_jitter.source_065.app[0] numActiveSessions:vector ETV
attr interpolationmode sample-hold
attr source sum(connect)
attr title "number of active sessions, vector"
vector 66 Jellyfish_16_4_3__fvj_flat_traffic_baseline_seed3_jitter.source_066.app[0] numActiveSessions:vector ETV
attr interpolationmode sample-hold
attr source sum(connect)
attr title "number of active sessions, vector"
vector 67 Jellyfish_16_4_3__fvj_flat_traffic_baseline_seed3_jitter.source_067.app[0] numActiveSessions:vector ETV
attr interpolationmode sample-hold
attr source sum(connect)
attr title "number of active sessions, vector"
vector 68 Jellyfish_16_4_3__fvj_flat_traffic_baseline_seed3_jitter.source_068.app[0] numActiveSessions:vector ETV
attr interpolationmode sample-hold
attr source sum(connect)
attr title "number of active sessions, vector"
vector 69 Jellyfish_16_4_3__fvj_flat_traffic_baseline_seed3_jitter.source_069.app[0] numActiveSessions:vector ETV
attr interpolationmode sample-hold
attr source sum(connect)
attr title "number of active sessions, vector"
vector 70 Jellyfish_16_4_3__fvj_flat_traffic_baseline_seed3_jitter.source_070.app[0] numActiveSessions:vector ETV
attr interpolationmode sample-hold
attr source sum(connect)
attr title "number of active sessions, vector"
vector 71 Jellyfish_16_4_3__fvj_flat_traffic_baseline_seed3_jitter.source_071.app[0] numActiveSessions:vector ETV
attr interpolationmode sample-hold
attr source sum(connect)
attr title "number of active sessions, vector"
vector 72 Jellyfish_16_4_3__fvj_flat_traffic_baseline_seed3_jitter.source_072.app[0] numActiveSessions:vector ETV
attr interpolationmode sample-hold
attr source sum(connect)
attr title "number of active sessions, vector"
vector 73 Jellyfish_16_4_3__fvj_flat_traffic_baseline_seed3_jitter.source_073.app[0] numActiveSessions:vector ETV
attr interpolationmode sample-hold
attr source sum(connect)
attr title "number of active sessions, vector"
vector 74 Jellyfish_16_4_3__fvj_flat_traffic_baseline_seed3_jitter.source_074.app[0] numActiveSessions:vector ETV
attr interpolationmode sample-hold
attr source sum(connect)
attr title "number of active sessions, vector"
vector 75 Jellyfish_16_4_3__fvj_flat_traffic_baseline_seed3_jitter.source_075.app[0] numActiveSessions:vector ETV
attr interpolationmode sample-hold
attr source sum(connect)
attr title "number of active sessions, vector"
vector 76 Jellyfish_16_4_3__fvj_flat_traffic_baseline_seed3_jitter.source_076.app[0] numActiveSessions:vector ETV
attr interpolationmode sample-hold
attr source sum(connect)
attr title "number of active sessions, vector"
vector 77 Jellyfish_16_4_3__fvj_flat_traffic_baseline_seed3_jitter.source_077.app[0] numActiveSessions:vector ETV
attr interpolationmode sample-hold
attr source sum(connect)
attr title "number of active sessions, vector"
vector 78 Jellyfish_16_4_3__fvj_flat_traffic_baseline_seed3_jitter.source_078.app[0] numActiveSessions:vector ETV
attr interpolationmode sample-hold
attr source sum(connect)
attr title "number of active sessions, vector"
vector 79 Jellyfish_16_4_3__fvj_flat_traffic_baseline_seed3_jitter.source_079.app[0] numActiveSessions:vector ETV
attr interpolationmode sample-hold
attr source sum(connect)
attr title "number of active sessions, vector"
vector 80 Jellyfish_16_4_3__fvj_flat_traffic_baseline_seed3_jitter.sink_013.app[0] endToEndDelay:vector ETV
attr interpolationmode none
attr source dataAge(packetReceived)
attr title "end-to-end delay, vector"
attr unit s
vector 81 Jellyfish_16_4_3__fvj_flat_traffic_baseline_seed3_jitter.source_013.app[0] endToEndDelay:vector ETV
attr interpolationmode none
attr source dataAge(packetReceived)
attr title "end-to-end delay, vector"
attr unit s
vector 82 Jellyfish_16_4_3__fvj_flat_traffic_baseline_seed3_jitter.sink_011.app[0] endToEndDelay:vector ETV
attr interpolationmode none
attr source dataAge(packetReceived)
attr title "end-to-end delay, vector"
attr unit s
vector 83 Jellyfish_16_4_3__fvj_flat_traffic_baseline_seed3_jitter.sink_020.app[0] endToEndDelay:vector ETV
attr interpolationmode none
attr source dataAge(packetReceived)
attr title "end-to-end delay, vector"
attr unit s
vector 84 Jellyfish_16_4_3__fvj_flat_traffic_baseline_seed3_jitter.sink_044.app[0] endToEndDelay:vector ETV
attr interpolationmode none
attr source dataAge(packetReceived)
attr title "end-to-end delay, vector"
attr unit s
vector 85 Jellyfish_16_4_3__fvj_flat_traffic_baseline_seed3_jitter.sink_033.app[0] endToEndDelay:vector ETV
attr interpolationmode none
attr source dataAge(packetReceived)
attr title "end-to-end delay, vector"
attr unit s
vector 86 Jellyfish_16_4_3__fvj_flat_traffic_baseline_seed3_jitter.source_020.app[0] endToEndDelay:vector ETV
attr interpolationmode none
attr source dataAge(packetReceived)
attr title "end-to-end delay, vector"
attr unit s
vector 87 Jellyfish_16_4_3__fvj_flat_traffic_baseline_seed3_jitter.source_044.app[0] endToEndDelay:vector ETV
attr interpolationmode none
attr source dataAge(packetReceived)
attr title "end-to-end delay, vector"
attr unit s
vector 88 Jellyfish_16_4_3__fvj_flat_traffic_baseline_seed3_jitter.sink_016.app[0] endToEndDelay:vector ETV
attr interpolationmode none
attr source dataAge(packetReceived)
attr title "end-to-end delay, vector"
attr unit s
vector 89 Jellyfish_16_4_3__fvj_flat_traffic_baseline_seed3_jitter.sink_024.app[0] endToEndDelay:vector ETV
attr interpolationmode none
attr source dataAge(packetReceived)
attr title "end-to-end delay, vector"
attr unit s
vector 90 Jellyfish_16_4_3__fvj_flat_traffic_baseline_seed3_jitter.source_033.app[0] endToEndDelay:vector ETV
attr interpolationmode none
attr source dataAge(packetReceived)
attr title "end-to-end delay, vector"
attr unit s
vector 91 Jellyfish_16_4_3__fvj_flat_traffic_baseline_seed3_jitter.sink_002.app[0] endToEndDelay:vector ETV
attr interpolationmode none
attr source dataAge(packetReceived)
attr title "end-to-end delay, vector"
attr unit s
vector 92 Jellyfish_16_4_3__fvj_flat_traffic_baseline_seed3_jitter.sink_025.app[0] endToEndDelay:vector ETV
attr interpolationmode none
attr source dataAge(packetReceived)
attr title "end-to-end delay, vector"
attr unit s
vector 93 Jellyfish_16_4_3__fvj_flat_traffic_baseline_seed3_jitter.source_002.app[0] endToEndDelay:vector ETV
attr interpolationmode none
attr source dataAge(packetReceived)
attr title "end-to-end delay, vector"
attr unit s
vector 94 Jellyfish_16_4_3__fvj_flat_traffic_baseline_seed3_jitter.source_024.app[0] endToEndDelay:vector ETV
attr interpolationmode none
attr source dataAge(packetReceived)
attr title "end-to-end delay, vector"
attr unit s
vector 95 Jellyfish_16_4_3__fvj_flat_traffic_baseline_seed3_jitter.sink_039.app[0] endToEndDelay:vector ETV
attr interpolationmode none
attr source dataAge(packetReceived)
attr title "end-to-end delay, vector"
attr unit s
vector 96 Jellyfish_16_4_3__fvj_flat_traffic_baseline_seed3_jitter.sink_040.app[0] endToEndDelay:vector ETV
attr interpolationmode none
attr source dataAge(packetReceived)
attr title "end-to-end delay, vector"
attr unit s
vector 97 Jellyfish_16_4_3__fvj_flat_traffic_baseline_seed3_jitter.source_025.app[0] endToEndDelay:vector ETV
attr interpolationmode none
attr source dataAge(packetReceived)
attr title "end-to-end delay, vector"
attr unit s
[...]
230	896252	1.905652	0.011558
230	898352	1.918453	0.011585
230	900005	1.930012	0.010343
231	24890	0.041335	0.038452
231	40458	0.068355	0.024866
231	54680	0.093134	0.02068
231	70158	0.120908	0.026327
231	86473	0.148969	0.022697
231	101555	0.175495	0.023149
231	116619	0.202835	0.023253
231	132397	0.230505	0.025615
231	146403	0.255617	0.021108
231	161922	0.282671	0.023374
231	177059	0.309273	0.023468
231	192964	0.336744	0.023204
231	207071	0.36163	0.02132
231	223788	0.391285	0.026261
231	239250	0.418258	0.023661
231	254366	0.445256	0.025782
231	271717	0.47539	0.026941
231	287061	0.502102	0.021406
231	303041	0.531617	0.024676
231	319894	0.559999	0.025607
231	334280	0.586571	0.024229
231	349173	0.613079	0.023904
231	364170	0.63972	0.0251
231	380154	0.666984	0.026048
231	396802	0.696908	0.024185
231	411922	0.723364	0.02349
231	426550	0.749377	0.023568
231	442180	0.777972	0.025229
231	458295	0.8081	0.02519
231	471518	0.833666	0.023775
231	486291	0.861952	0.025283
231	500904	0.890902	0.023905
231	511765	0.912684	0.020566
231	525423	0.940075	0.02283
231	538838	0.967918	0.023229
231	553888	0.997972	0.025822
231	567579	1.025183	0.021373
231	580366	1.051642	0.022345
231	594175	1.079044	0.021089
231	608522	1.108121	0.027259
231	622226	1.136805	0.024233
231	638733	1.17051	0.02685
231	650202	1.193992	0.021037
231	662420	1.219265	0.023664
231	675074	1.245692	0.022297
231	685646	1.269952	0.020782
231	696434	1.294432	0.02157
231	707917	1.321171	0.025471
231	718462	1.346802	0.022747
231	730757	1.375692	0.02512
231	741109	1.400868	0.022235
231	751510	1.426833	0.023399
231	761295	1.452768	0.02377
231	769839	1.47788	0.01965
231	777234	1.497604	0.016054
231	784941	1.519955	0.018672
231	792838	1.543626	0.01928
231	799460	1.56278	0.017736
231	806734	1.582819	0.018823
231	814287	1.604172	0.019928
231	820627	1.623802	0.017147
231	826930	1.643432	0.017754
231	833424	1.663062	0.017059
231	841015	1.685433	0.019116
231	847983	1.705157	0.018265
231	854721	1.726813	0.02044
231	859925	1.745811	0.017782
231	864532	1.763933	0.016906
231	868929	1.783516	0.018367
231	873369	1.800687	0.015955
231	876627	1.813582	0.011679
231	879316	1.826049	0.011224
231	882154	1.838902	0.011637
231	884747	1.850294	0.010176
231	887321	1.864054	0.010203
231	890127	1.875587	0.010317
231	892905	1.887092	0.010248
232	25139	0.041574	0.003075
232	40989	0.069232	0.005051
232	56034	0.095324	0.001216
232	68922	0.118747	0.002127
232	83021	0.143136	0.002731
232	97883	0.169643	0.002732
232	114777	0.199272	0.005159
232	129849	0.22625	0.004826
232	144802	0.252311	0.003717
232	159431	0.278784	0.004622
232	174307	0.304275	0.002192
232	189432	0.330758	0.002276
232	204099	0.356835	0.001324
232	217822	0.380415	0.001216
232	232983	0.407483	0.002953
232	246849	0.432401	0.002209
232	261362	0.45773	0.003156
232	278293	0.486537	0.004793
232	293136	0.513061	0.003635
232	305515	0.534894	0.001598
232	322470	0.564649	0.005966
232	337216	0.591281	0.001246
232	352181	0.617914	0.001942
232	367198	0.644336	0.002102
232	380218	0.66706	0.001996
232	397707	0.698454	0.002213
232	411397	0.722587	0.003719
232	425743	0.747782	0.001224
232	441410	0.776432	0.003016
232	456768	0.805385	0.004893
232	470973	0.832393	0.003498
232	485865	0.86094	0.005947
232	496028	0.880726	0.001216
232	510334	0.909381	0.005214
232	524053	0.937527	0.002558
232	537138	0.9642	0.004709
232	548422	0.986784	0.001336
232	564336	1.018745	0.003236
232	578100	1.046354	0.003135
232	589078	1.067832	0.001216
232	603833	1.098684	0.004576
232	616643	1.125463	0.002704
232	630430	1.153912	0.002495
232	643116	1.179358	0.003244
232	657632	1.209146	0.007324
232	667934	1.23062	0.00195
232	681545	1.259872	0.004013
232	692638	1.285488	0.002631
232	703422	1.311266	0.00268
232	716115	1.340026	0.003995
232	727041	1.367272	0.001216
232	738844	1.395614	0.003421
232	749628	1.42186	0.002264
232	759791	1.448832	0.001219
232	770393	1.479515	0.003157
232	779832	1.504979	0.001263
232	789270	1.532117	0.003717
232	797814	1.557471	0.001834
232	807629	1.585078	0.003551
232	817576	1.614278	0.0054
232	826363	1.64124	0.001854
232	835645	1.670087	0.003531
232	843807	1.693427	0.003165
232	849756	1.711696	0.003653
232	854814	1.727116	0.003197
232	858983	1.742172	0.001595
232	862952	1.757086	0.002286
232	866834	1.773816	0.003407
232	870527	1.78885	0.002604
232	874330	1.804578	0.00277
232	877777	1.818653	0.001216
232	881157	1.834316	0.00255
232	884319	1.848497	0.001216
232	888070	1.866438	0.003548
232	892055	1.885141	0.003787
232	894835	1.896505	0.001981
232	896896	1.909163	0.003391
233	25809	0.042616	0.003951
233	37675	0.063796	0.00171
233	51892	0.088681	0.001216
233	63943	0.109928	0.001281
233	77257	0.132696	0.002455
233	90888	0.158165	0.002826
233	102630	0.177509	0.001216
233	115381	0.200258	0.001824
233	127637	0.221482	0.001505
233	142279	0.247226	0.001661
233	154756	0.269497	0.001854
233	167046	0.292008	0.001216
233	180237	0.314643	0.001937
233	192159	0.335714	0.003083
233	204048	0.356768	0.002161
233	217098	0.379344	0.002627
233	230551	0.403181	0.001849
233	243906	0.427181	0.004118
233	256063	0.448263	0.00255
233	268514	0.46986	0.002632
233	283130	0.495357	0.002249
233	296652	0.518678	0.002943
233	310401	0.543772	0.003666
233	322005	0.563987	0.003678
233	333892	0.585739	0.003403
233	346881	0.608906	0.001216
233	359370	0.630429	0.001762
233	371736	0.652424	0.001216
233	386694	0.679201	0.002917
233	399853	0.701923	0.002559
233	410982	0.722013	0.001216
233	423249	0.743018	0.001652
233	437099	0.768718	0.001576
233	450068	0.793036	0.002343
233	460820	0.813714	0.001391
233	472596	0.835776	0.001216
233	484034	0.857299	0.002467
233	497436	0.883433	0.002204
233	509614	0.907706	0.001216
233	520252	0.930339	0.002323
233	531035	0.952023	0.002503
233	541009	0.971915	0.001596
233	551826	0.993532	0.001216
233	563226	1.01689	0.004295
233	573895	1.038182	0.001216
233	585520	1.061024	0.001834
233	597431	1.085344	0.002181
233	608285	1.107867	0.001216
233	618603	1.129307	0.001743
233	631202	1.155093	0.00239
233	642166	1.177076	0.002209
233	652778	1.198423	0.001216
233	663974	1.222077	0.001342
233	674357	1.244154	0.001255
233	684759	1.267619	0.001216
233	693781	1.288194	0.001548
233	702536	1.309627	0.002558
233	711240	1.329309	0.001216
233	720964	1.352147	0.001216
233	729872	1.37385	0.001216
233	739018	1.395967	0.001216
233	748200	1.418936	0.001694
233	755262	1.436694	0.001216
233	762923	1.457557	0.001216
233	769647	1.477053	0.001216
233	777357	1.497916	0.001216
233	785206	1.520957	0.001953
233	793492	1.545265	0.001216
233	801202	1.567423	0.002417
233	809085	1.588526	0.001216
233	816823	1.612211	0.00255
233	823557	1.633208	0.002543
233	830245	1.65347	0.001895
233	835915	1.67096	0.001216
233	842855	1.690523	0.001216
233	848226	1.706186	0.001216
233	852516	1.718967	0.001216
234	25980	0.042777	0.002733
234	40173	0.067857	0.001233
234	57203	0.097583	0.003475
234	72672	0.124914	0.003046
234	91736	0.159142	0.005125
234	106088	0.184904	0.002524
234	121313	0.211003	0.001514
234	134802	0.234921	0.001787
234	149458	0.260583	0.002082
234	166186	0.290354	0.005166
234	183420	0.320566	0.001533
234	199031	0.347527	0.001049
234	213988	0.373807	0.001165
234	230491	0.403075	0.003464
234	250114	0.437952	0.003505
234	263875	0.46222	0.001963
234	278941	0.487711	0.002087
234	292724	0.512477	0.001513
234	308385	0.539595	0.00187
234	324352	0.568562	0.005356
234	339755	0.595123	0.002348
234	354771	0.622514	0.001049
234	370246	0.649723	0.002079
234	385600	0.677219	0.001049
234	402048	0.705464	0.002396
234	418940	0.735162	0.003939
234	435280	0.765111	0.002992
234	449881	0.792682	0.002581
234	464165	0.819793	0.001356
234	480002	0.849751	0.003206
234	494194	0.877217	0.002403
234	507725	0.904038	0.001049
234	521350	0.932391	0.004345
234	535981	0.961628	0.002195
234	554274	0.998642	0.006805
234	569037	1.02838	0.002678
234	582373	1.055939	0.002687
234	596728	1.084084	0.003238
234	610022	1.11157	0.001088
234	624673	1.141765	0.002967
234	638274	1.169292	0.0021
234	654108	1.201084	0.001763
234	668326	1.231427	0.001049
234	682411	1.26212	0.003417
234	698694	1.299346	0.002699
234	712782	1.33264	0.003486
234	724081	1.359514	0.00214
234	736933	1.391408	0.001467
234	747252	1.417031	0.001723
234	758432	1.44534	0.003204
234	768345	1.472765	0.002246
234	777593	1.498808	0.001508
234	785794	1.522322	0.001049
234	794525	1.547709	0.001049
234	803344	1.573272	0.002478
234	810078	1.591046	0.001049
234	817030	1.612597	0.002735
234	824168	1.634466	0.002325
234	830352	1.653613	0.002961
234	837275	1.674791	0.002478
234	843620	1.693107	0.001753
234	850375	1.713341	0.001049
234	856319	1.732327	0.001909
234	861804	1.752006	0.001596
234	866478	1.772149	0.002573
234	871388	1.792138	0.003104
234	874804	1.805786	0.001049
234	878416	1.820842	0.002058
234	880604	1.831421	0.001049
234	883404	1.844896	0.001911
234	886128	1.857033	0.001049
234	888589	1.868299	0.001049
234	891342	1.881899	0.001942
234	894530	1.895353	0.002528
234	896638	1.907543	0.00185
234	898733	1.920203	0.001689
234	900256	1.931122	0.001049
235	26251	0.043112	0.020884
235	43959	0.074189	0.019044
235	62407	0.107377	0.019384
235	80813	0.138973	0.018764
235	99175	0.17144	0.017135
235	117859	0.204846	0.016786
235	136114	0.236796	0.017206
235	155385	0.270602	0.01895
235	172277	0.301131	0.017417
235	190249	0.332318	0.016744
235	207720	0.362929	0.017003
235	227571	0.398457	0.021476
235	244425	0.42812	0.017986
235	262047	0.459083	0.017002
235	278768	0.487513	0.01624
235	297248	0.519964	0.015998
235	315376	0.552341	0.016063
235	335797	0.588766	0.019698
235	354821	0.622611	0.018419
235	373375	0.655115	0.018813
235	393098	0.690321	0.021194
235	412287	0.724119	0.023088
235	429486	0.753896	0.018325
235	447351	0.787734	0.020139
235	462789	0.817377	0.0166
235	481764	0.852569	0.020866
235	495717	0.880286	0.016772
235	511447	0.912029	0.018486
235	526682	0.942878	0.019184
235	543850	0.976904	0.022655
235	558076	1.006547	0.014978
235	572863	1.036069	0.01918
235	587090	1.064566	0.016978
235	602024	1.095254	0.016991
235	615144	1.122129	0.016336
235	629862	1.153025	0.020405
235	644016	1.181475	0.017548
235	657375	1.208303	0.016128
235	672251	1.239521	0.016806
235	688024	1.274505	0.022008
235	701014	1.305515	0.019028
235	714039	1.335312	0.017141
235	727196	1.367763	0.019461
235	738357	1.394571	0.016632
235	750168	1.423048	0.016776
235	761231	1.452664	0.018539
235	771877	1.483513	0.019729
235	781346	1.509061	0.01499
235	791071	1.537169	0.017932
235	800452	1.565458	0.015992
235	808383	1.587113	0.009767
235	815434	1.607932	0.009676
235	822273	1.628226	0.008919
235	829573	1.651375	0.011111
235	836890	1.674155	0.012577
235	843649	1.693149	0.008755
235	849635	1.711306	0.007981
235	855137	1.728125	0.006643
235	860648	1.747909	0.009608
235	865286	1.766722	0.008637
235	870736	1.789415	0.011223
235	875419	1.808107	0.008516
235	879773	1.827757	0.008375
235	884181	1.847729	0.0085
235	888826	1.869139	0.010001
235	892490	1.886209	0.006894
235	895911	1.903192	0.005688
235	898236	1.917501	0.004133
235	899875	1.929335	0.001658
235	901665	1.941799	0.001216
235	902510	1.953191	0.001216
235	903436	1.964583	0.001216
235	904368	1.976008	0.001216
235	905310	1.987567	0.001216
235	906252	1.999126	0.001216
235	907313	2.010685	0.001216
235	908090	2.022077	0.001216
236	26618	0.043489	0.002154
236	42937	0.072454	0.004099
236	55701	0.094581	0.001447
236	73467	0.126272	0.005364
236	87921	0.152346	0.003377
236	103693	0.179582	0.004087
236	117912	0.20489	0.002055
236	134412	0.234509	0.004004
236	148695	0.259297	0.00368
236	163745	0.285805	0.003134
236	179701	0.31354	0.004267
236	195016	0.34031	0.003566
236	209020	0.365024	0.003394
236	225477	0.394597	0.003312
236	240024	0.419474	0.001216
236	256179	0.448449	0.003193
236	274609	0.480696	0.005306
236	289535	0.506941	0.004839
236	305066	0.534392	0.002775
236	320946	0.562342	0.002343
236	336023	0.589175	0.002604
236	350078	0.61462	0.001541
236	364972	0.640936	0.001216
236	383357	0.672723	0.005739
236	398587	0.699874	0.002966
236	413395	0.725809	0.002445
236	428835	0.752743	0.003366
236	444899	0.78291	0.004938
236	459272	0.809891	0.001791
236	472926	0.836669	0.003003
236	488701	0.866997	0.005045
236	501477	0.892118	0.001216
236	513953	0.917245	0.004561
236	527453	0.944689	0.004614
236	541180	0.97215	0.004232
236	556806	1.00381	0.005838
236	569356	1.029297	0.004114
236	583520	1.057955	0.006313
236	595140	1.080862	0.001818
236	610422	1.112572	0.004451
236	625585	1.14366	0.006855
236	639972	1.172955	0.002445
236	651192	1.195601	0.001609
236	664655	1.223395	0.00413
236	676875	1.24917	0.003478
236	687238	1.272862	0.00291
236	697116	1.2957	0.001268
236	708910	1.324055	0.002884
236	720325	1.350572	0.00377
236	732143	1.378633	0.002941
236	742273	1.403434	0.002566
236	752408	1.428998	0.002165
236	763271	1.45823	0.005462
236	771118	1.48155	0.00367
236	778425	1.501283	0.003679
236	786538	1.524346	0.004391
236	793384	1.545044	0.001418
236	799930	1.563996	0.001216
236	807208	1.584244	0.001425
236	815018	1.606655	0.002483
236	821249	1.625678	0.001876
236	827657	1.646003	0.002571
236	834502	1.666317	0.003255
236	841570	1.686892	0.001459
236	848289	1.706373	0.001216
236	855098	1.728029	0.001216
236	860298	1.747027	0.001216
236	864856	1.765149	0.001216
236	869293	1.784732	0.001216
236	873562	1.801903	0.001216
236	876964	1.814825	0.001243
236	879466	1.827265	0.001216
236	882531	1.840118	0.001216
236	885410	1.853851	0.003557
236	887667	1.86527	0.001216
236	890507	1.876844	0.001257
236	893321	1.888308	0.001216
237	27359	0.045147	0.010794
237	48957	0.083111	0.010825
237	72091	0.123832	0.015456
237	95742	0.165947	0.01882
237	116476	0.20258	0.012539
237	141664	0.246136	0.012731
237	164264	0.286904	0.01535
237	183588	0.320796	0.012862
237	205234	0.358635	0.012544
237	227999	0.399403	0.014487
237	248853	0.43613	0.011193
237	270839	0.473969	0.013934
237	289198	0.506467	0.012359
237	312859	0.548535	0.01429
237	335309	0.588003	0.013639
237	357783	0.62733	0.013431
237	379291	0.66542	0.0121
237	403954	0.70896	0.014785
237	425306	0.746907	0.011642
237	446554	0.786173	0.014369
237	468172	0.826968	0.014282
237	489226	0.867803	0.015582
237	510543	0.909871	0.016748
237	528520	0.946504	0.012452
237	548000	0.985925	0.013732
237	566063	1.022417	0.014871
237	581903	1.054915	0.011996
237	602907	1.09703	0.017525
237	620545	1.133616	0.013229
237	639312	1.171596	0.013048
237	659782	1.213711	0.014395
237	678687	1.253132	0.017069
237	696856	1.295341	0.015427
237	711844	1.330533	0.013919
237	728207	1.369813	0.015219
237	744640	1.409281	0.013758
237	757537	1.44322	0.012136
237	768890	1.474512	0.005448
237	779493	1.50431	0.004075
237	787595	1.527087	0.002973
237	795855	1.551201	0.001653
237	804464	1.575693	0.002105
237	812832	1.599971	0.007086
237	819371	1.619728	0.004237
237	825416	1.638744	0.002254
237	832813	1.661249	0.003118
237	841042	1.685475	0.007097
237	847572	1.703892	0.00524
237	853833	1.723262	0.006594
237	859519	1.744327	0.005586
237	864204	1.762848	0.004979
237	867788	1.776898	0.001818
237	871915	1.79358	0.001524
237	876015	1.810389	0.00133
237	880767	1.831934	0.003339
237	884788	1.850363	0.001796
237	888711	1.868619	0.00143
237	892776	1.886847	0.001308
237	895744	1.902672	0.001477
237	897839	1.91554	0.00143
237	899339	1.926932	0.001216
237	901185	1.939713	0.001257
237	902345	1.952484	0.001216
237	903300	1.964043	0.001216
237	904250	1.975602	0.001216
237	905192	1.987161	0.001216
237	906134	1.99872	0.001216
237	907198	2.010112	0.001216
237	907975	2.021504	0.001216
237	908825	2.032896	0.001216
237	909445	2.044288	0.001216
237	910065	2.05568	0.001216
237	910685	2.067072	0.001216
237	911305	2.078464	0.001216
237	911925	2.089856	0.001216
237	912564	2.101248	0.001216
237	913328	2.11264	0.001216
238	27399	0.045261	0.003985
238	44544	0.075051	0.001371
238	59247	0.101504	0.003094
238	76394	0.130882	0.008566
238	92501	0.160174	0.001836
238	109914	0.191196	0.005337
238	123928	0.215167	0.003165
238	137377	0.238964	0.001216
238	153718	0.268089	0.002064
238	171192	0.299272	0.002879
238	188452	0.32956	0.004898
238	205076	0.358452	0.002794
238	218597	0.381795	0.001922
238	234969	0.410639	0.004099
238	251809	0.44057	0.004508
238	266779	0.466635	0.00219
238	284694	0.4983	0.005633
238	298701	0.522933	0.004899
238	315202	0.551954	0.005049
238	332385	0.582796	0.00425
238	347891	0.610678	0.005351
238	362317	0.6362	0.003951
238	376655	0.661692	0.001221
238	393252	0.690596	0.003017
238	408834	0.717797	0.00239
238	425260	0.74684	0.004553
238	437804	0.770149	0.002433
238	451066	0.794725	0.00183
238	466283	0.824009	0.002684
238	481801	0.852626	0.003287
238	496180	0.880902	0.006716
238	508971	0.906474	0.003385
238	521764	0.933188	0.003271
238	537855	0.965631	0.006098
238	552544	0.994866	0.00437
238	567347	1.024748	0.003195
238	581862	1.054848	0.005053
238	594414	1.079515	0.004239
238	607208	1.105834	0.00373
238	620993	1.134389	0.004083
238	636403	1.16571	0.004374
238	649816	1.193244	0.005033
238	661456	1.217409	0.00237
238	675228	1.245824	0.001216
238	689503	1.277379	0.003222
238	701864	1.307822	0.002655
238	713521	1.334384	0.002436
238	724388	1.360127	0.002745
238	735611	1.387823	0.005007
238	747132	1.416797	0.004271
238	757022	1.442071	0.001229
238	764881	1.463329	0.001235
238	774513	1.490767	0.001959
238	784021	1.516919	0.001216
238	792554	1.542306	0.001216
238	801284	1.567512	0.001216
238	808167	1.586399	0.001216
238	814578	1.604981	0.001854
238	821967	1.627413	0.001298
238	828932	1.649636	0.001969
238	835863	1.670794	0.001216
238	842637	1.689835	0.001216
238	847804	1.70456	0.001216
238	853501	1.722066	0.001216
238	857659	1.737169	0.001216
238	861722	1.751679	0.001216
238	865884	1.768937	0.001216
238	870499	1.788795	0.001216
238	874883	1.806006	0.001216
238	878879	1.824329	0.001216
238	882494	1.840005	0.001216
238	887040	1.861435	0.001216
238	890784	1.878438	0.001216
238	894274	1.894094	0.001216
238	896523	1.906868	0.001216
238	898647	1.919669	0.001216
238	900309	1.931228	0.001216
239	27746	0.045853	0.016702
239	47269	0.079946	0.017784
239	68465	0.117961	0.018616
239	90475	0.157339	0.021389
239	113291	0.19633	0.021348
239	134125	0.233847	0.015604
239	155470	0.27081	0.017717
239	173238	0.302639	0.017484
239	193922	0.338102	0.016999
239	214113	0.374071	0.016832
239	232729	0.407096	0.014603
239	250399	0.43822	0.014609
239	270402	0.473204	0.017934
239	292868	0.512692	0.023725
239	314792	0.551435	0.020639
239	336633	0.590275	0.01986
239	358268	0.628301	0.016903
239	378865	0.664954	0.020147
239	397970	0.698799	0.017564
239	417573	0.732691	0.01719
239	434456	0.763815	0.014458
239	452698	0.79768	0.017702
239	469898	0.830151	0.01797
239	487738	0.864137	0.018446
239	504794	0.899235	0.017495
239	521723	0.9331	0.017738
239	535916	0.961436	0.013537
239	552705	0.99512	0.017194
239	568587	1.027591	0.017556
239	586978	1.064358	0.018117
239	604206	1.099644	0.017121
239	622789	1.137691	0.020318
239	639281	1.171536	0.016478
239	656118	1.205448	0.017028
239	672183	1.23936	0.018737
239	689538	1.277407	0.020634
239	705640	1.315387	0.018282
239	720927	1.352087	0.018597
239	734647	1.384828	0.015141
239	746776	1.415917	0.014121
239	760650	1.451109	0.018598
239	774999	1.492011	0.018211
239	787693	1.527297	0.018163
239	800368	1.565344	0.017225
239	810818	1.593441	0.009078
239	821030	1.625116	0.012873
239	831481	1.657132	0.014127
239	840756	1.684765	0.012251
239	847079	1.702345	0.004551
239	852892	1.719851	0.005094
239	857902	1.737789	0.009209
239	862009	1.752735	0.006202
239	865393	1.767064	0.0056
239	869955	1.786674	0.009829
239	875314	1.807812	0.011833
239	879712	1.827643	0.010885
239	884098	1.847568	0.011196
239	888015	1.866237	0.00994
239	892363	1.885934	0.010968
239	895620	1.901684	0.007021
239	897991	1.915993	0.00558
239	899805	1.929013	0.004291
239	901068	1.939105	0.001363
239	902222	1.95171	0.003876
239	903161	1.963222	0.002783
239	904104	1.974781	0.00283
239	905046	1.98634	0.00283
239	905988	1.997899	0.00283
239	907062	2.009291	0.002663
239	907839	2.020683	0.002663
239	908741	2.032075	0.002663
239	909361	2.043467	0.002663
239	909981	2.054859	0.002663
239	910601	2.066251	0.002663
239	911221	2.077643	0.002663
239	911841	2.089035	0.002663
239	912461	2.100427	0.002663

