version 2
run General-0-20220427-21:24:25-22293
attr configname General
attr datetime 20220427-21:24:25
attr experiment General
attr inifile Jellyfish_8_8_7_8__jelly_vary_num_switches_seed5.ini
attr iterationvars ""
attr iterationvarsf ""
attr measurement ""
attr network Jellyfish_8_8_7_8__jelly_vary_num_switches_seed5
attr processid 22293
attr repetition 0
attr replication #0
attr resultdir results
attr runnumber 0
attr seedset 0
param **.ppp[*].ppp.queue.typename "\"DropTailQueue\""
param **.ppp[*].ppp.queue.packetCapacity 100
param *.configurator.config "xmldoc(\"Jellyfish_8_8_7_8__jelly_vary_num_switches_seed5.xml\")"
param **.sink_000.numApps 1
param **.sink_000.app[0].typename "\"TcpGenericServerApp\""
param **.sink_000.app[0].localAddress "\"\""
param **.sink_000.app[0].localPort 1100
param **.sink_000.app[0].replyDelay 0s
param **.sink_001.numApps 1
param **.sink_001.app[0].typename "\"TcpGenericServerApp\""
param **.sink_001.app[0].localAddress "\"\""
param **.sink_001.app[0].localPort 1100
param **.sink_001.app[0].replyDelay 0s
param **.sink_002.numApps 1
param **.sink_002.app[0].typename "\"TcpGenericServerApp\""
param **.sink_002.app[0].localAddress "\"\""
param **.sink_002.app[0].localPort 1100
param **.sink_002.app[0].replyDelay 0s
param **.sink_003.numApps 1
param **.sink_003.app[0].typename "\"TcpGenericServerApp\""
param **.sink_003.app[0].localAddress "\"\""
param **.sink_003.app[0].localPort 1100
param **.sink_003.app[0].replyDelay 0s
param **.sink_004.numApps 1
param **.sink_004.app[0].typename "\"TcpGenericServerApp\""
param **.sink_004.app[0].localAddress "\"\""
param **.sink_004.app[0].localPort 1100
param **.sink_004.app[0].replyDelay 0s
param **.sink_005.numApps 1
param **.sink_005.app[0].typename "\"TcpGenericServerApp\""
param **.sink_005.app[0].localAddress "\"\""
param **.sink_005.app[0].localPort 1100
param **.sink_005.app[0].replyDelay 0s
param **.sink_006.numApps 1
param **.sink_006.app[0].typename "\"TcpGenericServerApp\""
param **.sink_006.app[0].localAddress "\"\""
param **.sink_006.app[0].localPort 1100
param **.sink_006.app[0].replyDelay 0s
param **.sink_007.numApps 1
param **.sink_007.app[0].typename "\"TcpGenericServerApp\""
param **.sink_007.app[0].localAddress "\"\""
param **.sink_007.app[0].localPort 1100
param **.sink_007.app[0].replyDelay 0s
param **.sink_008.numApps 1
param **.sink_008.app[0].typename "\"TcpGenericServerApp\""
param **.sink_008.app[0].localAddress "\"\""
param **.sink_008.app[0].localPort 1100
param **.sink_008.app[0].replyDelay 0s
param **.sink_009.numApps 1
param **.sink_009.app[0].typename "\"TcpGenericServerApp\""
param **.sink_009.app[0].localAddress "\"\""
param **.sink_009.app[0].localPort 1100
param **.sink_009.app[0].replyDelay 0s
param **.sink_010.numApps 1
param **.sink_010.app[0].typename "\"TcpGenericServerApp\""
param **.sink_010.app[0].localAddress "\"\""
param **.sink_010.app[0].localPort 1100
param **.sink_010.app[0].replyDelay 0s
param **.sink_011.numApps 1
param **.sink_011.app[0].typename "\"TcpGenericServerApp\""
param **.sink_011.app[0].localAddress "\"\""
param **.sink_011.app[0].localPort 1100
param **.sink_011.app[0].replyDelay 0s
param **.sink_012.numApps 1
param **.sink_012.app[0].typename "\"TcpGenericServerApp\""
param **.sink_012.app[0].localAddress "\"\""
param **.sink_012.app[0].localPort 1100
param **.sink_012.app[0].replyDelay 0s
param **.sink_013.numApps 1
param **.sink_013.app[0].typename "\"TcpGenericServerApp\""
param **.sink_013.app[0].localAddress "\"\""
param **.sink_013.app[0].localPort 1100
param **.sink_013.app[0].replyDelay 0s
param **.sink_014.numApps 1
param **.sink_014.app[0].typename "\"TcpGenericServerApp\""
param **.sink_014.app[0].localAddress "\"\""
param **.sink_014.app[0].localPort 1100
param **.sink_014.app[0].replyDelay 0s
param **.sink_015.numApps 1
param **.sink_015.app[0].typename "\"TcpGenericServerApp\""
param **.sink_015.app[0].localAddress "\"\""
param **.sink_015.app[0].localPort 1100
param **.sink_015.app[0].replyDelay 0s
param **.sink_016.numApps 1
param **.sink_016.app[0].typename "\"TcpGenericServerApp\""
param **.sink_016.app[0].localAddress "\"\""
param **.sink_016.app[0].localPort 1100
param **.sink_016.app[0].replyDelay 0s
param **.sink_017.numApps 1
param **.sink_017.app[0].typename "\"TcpGenericServerApp\""
param **.sink_017.app[0].localAddress "\"\""
param **.sink_017.app[0].localPort 1100
param **.sink_017.app[0].replyDelay 0s
param **.sink_018.numApps 1
param **.sink_018.app[0].typename "\"TcpGenericServerApp\""
param **.sink_018.app[0].localAddress "\"\""
param **.sink_018.app[0].localPort 1100
param **.sink_018.app[0].replyDelay 0s
param **.sink_019.numApps 1
param **.sink_019.app[0].typename "\"TcpGenericServerApp\""
param **.sink_019.app[0].localAddress "\"\""
param **.sink_019.app[0].localPort 1100
param **.sink_019.app[0].replyDelay 0s
param **.sink_020.numApps 1
param **.sink_020.app[0].typename "\"TcpGenericServerApp\""
param **.sink_020.app[0].localAddress "\"\""
param **.sink_020.app[0].localPort 1100
param **.sink_020.app[0].replyDelay 0s
param **.sink_021.numApps 1
param **.sink_021.app[0].typename "\"TcpGenericServerApp\""
param **.sink_021.app[0].localAddress "\"\""
param **.sink_021.app[0].localPort 1100
param **.sink_021.app[0].replyDelay 0s
param **.sink_022.numApps 1
param **.sink_022.app[0].typename "\"TcpGenericServerApp\""
param **.sink_022.app[0].localAddress "\"\""
param **.sink_022.app[0].localPort 1100
param **.sink_022.app[0].replyDelay 0s
param **.sink_023.numApps 1
param **.sink_023.app[0].typename "\"TcpGenericServerApp\""
param **.sink_023.app[0].localAddress "\"\""
param **.sink_023.app[0].localPort 1100
param **.sink_023.app[0].replyDelay 0s
param **.sink_024.numApps 1
param **.sink_024.app[0].typename "\"TcpGenericServerApp\""
param **.sink_024.app[0].localAddress "\"\""
param **.sink_024.app[0].localPort 1100
param **.sink_024.app[0].replyDelay 0s
param **.sink_025.numApps 1
param **.sink_025.app[0].typename "\"TcpGenericServerApp\""
param **.sink_025.app[0].localAddress "\"\""
param **.sink_025.app[0].localPort 1100
param **.sink_025.app[0].replyDelay 0s
param **.sink_026.numApps 1
param **.sink_026.app[0].typename "\"TcpGenericServerApp\""
param **.sink_026.app[0].localAddress "\"\""
param **.sink_026.app[0].localPort 1100
param **.sink_026.app[0].replyDelay 0s
param **.sink_027.numApps 1
param **.sink_027.app[0].typename "\"TcpGenericServerApp\""
param **.sink_027.app[0].localAddress "\"\""
param **.sink_027.app[0].localPort 1100
param **.sink_027.app[0].replyDelay 0s
param **.sink_028.numApps 1
param **.sink_028.app[0].typename "\"TcpGenericServerApp\""
param **.sink_028.app[0].localAddress "\"\""
param **.sink_028.app[0].localPort 1100
param **.sink_028.app[0].replyDelay 0s
param **.sink_029.numApps 1
param **.sink_029.app[0].typename "\"TcpGenericServerApp\""
param **.sink_029.app[0].localAddress "\"\""
param **.sink_029.app[0].localPort 1100
param **.sink_029.app[0].replyDelay 0s
param **.sink_030.numApps 1
param **.sink_030.app[0].typename "\"TcpGenericServerApp\""
param **.sink_030.app[0].localAddress "\"\""
param **.sink_030.app[0].localPort 1100
param **.sink_030.app[0].replyDelay 0s
param **.sink_031.numApps 1
param **.sink_031.app[0].typename "\"TcpGenericServerApp\""
param **.sink_031.app[0].localAddress "\"\""
param **.sink_031.app[0].localPort 1100
param **.sink_031.app[0].replyDelay 0s
param **.sink_032.numApps 1
param **.sink_032.app[0].typename "\"TcpGenericServerApp\""
param **.sink_032.app[0].localAddress "\"\""
param **.sink_032.app[0].localPort 1100
param **.sink_032.app[0].replyDelay 0s
param **.sink_033.numApps 1
param **.sink_033.app[0].typename "\"TcpGenericServerApp\""
param **.sink_033.app[0].localAddress "\"\""
param **.sink_033.app[0].localPort 1100
param **.sink_033.app[0].replyDelay 0s
param **.sink_034.numApps 1
param **.sink_034.app[0].typename "\"TcpGenericServerApp\""
param **.sink_034.app[0].localAddress "\"\""
param **.sink_034.app[0].localPort 1100
param **.sink_034.app[0].replyDelay 0s
param **.sink_035.numApps 1
param **.sink_035.app[0].typename "\"TcpGenericServerApp\""
param **.sink_035.app[0].localAddress "\"\""
param **.sink_035.app[0].localPort 1100
param **.sink_035.app[0].replyDelay 0s
param **.sink_036.numApps 1
param **.sink_036.app[0].typename "\"TcpGenericServerApp\""
param **.sink_036.app[0].localAddress "\"\""
param **.sink_036.app[0].localPort 1100
param **.sink_036.app[0].replyDelay 0s
param **.sink_037.numApps 1
param **.sink_037.app[0].typename "\"TcpGenericServerApp\""
param **.sink_037.app[0].localAddress "\"\""
param **.sink_037.app[0].localPort 1100
param **.sink_037.app[0].replyDelay 0s
param **.sink_038.numApps 1
param **.sink_038.app[0].typename "\"TcpGenericServerApp\""
param **.sink_038.app[0].localAddress "\"\""
param **.sink_038.app[0].localPort 1100
param **.sink_038.app[0].replyDelay 0s
param **.sink_039.numApps 1
param **.sink_039.app[0].typename "\"TcpGenericServerApp\""
param **.sink_039.app[0].localAddress "\"\""
param **.sink_039.app[0].localPort 1100
param **.sink_039.app[0].replyDelay 0s
param **.sink_040.numApps 1
param **.sink_040.app[0].typename "\"TcpGenericServerApp\""
param **.sink_040.app[0].localAddress "\"\""
param **.sink_040.app[0].localPort 1100
param **.sink_040.app[0].replyDelay 0s
param **.sink_041.numApps 1
param **.sink_041.app[0].typename "\"TcpGenericServerApp\""
param **.sink_041.app[0].localAddress "\"\""
param **.sink_041.app[0].localPort 1100
param **.sink_041.app[0].replyDelay 0s
param **.sink_042.numApps 1
param **.sink_042.app[0].typename "\"TcpGenericServerApp\""
param **.sink_042.app[0].localAddress "\"\""
param **.sink_042.app[0].localPort 1100
param **.sink_042.app[0].replyDelay 0s
param **.sink_043.numApps 1
param **.sink_043.app[0].typename "\"TcpGenericServerApp\""
param **.sink_043.app[0].localAddress "\"\""
param **.sink_043.app[0].localPort 1100
param **.sink_043.app[0].replyDelay 0s
param **.sink_044.numApps 1
param **.sink_044.app[0].typename "\"TcpGenericServerApp\""
param **.sink_044.app[0].localAddress "\"\""
param **.sink_044.app[0].localPort 1100
param **.sink_044.app[0].replyDelay 0s
param **.sink_045.numApps 1
param **.sink_045.app[0].typename "\"TcpGenericServerApp\""
param **.sink_045.app[0].localAddress "\"\""
param **.sink_045.app[0].localPort 1100
param **.sink_045.app[0].replyDelay 0s
param **.sink_046.numApps 1
param **.sink_046.app[0].typename "\"TcpGenericServerApp\""
param **.sink_046.app[0].localAddress "\"\""
param **.sink_046.app[0].localPort 1100
param **.sink_046.app[0].replyDelay 0s
param **.sink_047.numApps 1
param **.sink_047.app[0].typename "\"TcpGenericServerApp\""
param **.sink_047.app[0].localAddress "\"\""
param **.sink_047.app[0].localPort 1100
param **.sink_047.app[0].replyDelay 0s
param **.sink_048.numApps 1
param **.sink_048.app[0].typename "\"TcpGenericServerApp\""
param **.sink_048.app[0].localAddress "\"\""
param **.sink_048.app[0].localPort 1100
param **.sink_048.app[0].replyDelay 0s
param **.sink_049.numApps 1
param **.sink_049.app[0].typename "\"TcpGenericServerApp\""
param **.sink_049.app[0].localAddress "\"\""
param **.sink_049.app[0].localPort 1100
param **.sink_049.app[0].replyDelay 0s
param **.sink_050.numApps 1
param **.sink_050.app[0].typename "\"TcpGenericServerApp\""
param **.sink_050.app[0].localAddress "\"\""
param **.sink_050.app[0].localPort 1100
param **.sink_050.app[0].replyDelay 0s
param **.sink_051.numApps 1
param **.sink_051.app[0].typename "\"TcpGenericServerApp\""
param **.sink_051.app[0].localAddress "\"\""
param **.sink_051.app[0].localPort 1100
param **.sink_051.app[0].replyDelay 0s
param **.sink_052.numApps 1
param **.sink_052.app[0].typename "\"TcpGenericServerApp\""
param **.sink_052.app[0].localAddress "\"\""
param **.sink_052.app[0].localPort 1100
param **.sink_052.app[0].replyDelay 0s
param **.sink_053.numApps 1
param **.sink_053.app[0].typename "\"TcpGenericServerApp\""
param **.sink_053.app[0].localAddress "\"\""
param **.sink_053.app[0].localPort 1100
param **.sink_053.app[0].replyDelay 0s
param **.source_000.numApps 1
param **.source_000.app[0].typename "\"TcpBasicClientApp\""
param **.source_000.app[0].localAddress "\"\""
param **.source_000.app[0].connectAddress "\"sink_000\""
param **.source_000.app[0].connectPort 1100
param **.source_000.app[0].startTime 0s
param **.source_000.app[0].idleInterval 1000s
param **.source_000.app[0].requestLength 1300B
param **.source_000.app[0].replyLength 20B
param **.source_000.app[0].thinkTime 0s
param **.source_000.app[0].numRequestsPerSession 22
param **.source_001.numApps 1
param **.source_001.app[0].typename "\"TcpBasicClientApp\""
param **.source_001.app[0].localAddress "\"\""
param **.source_001.app[0].connectAddress "\"sink_001\""
param **.source_001.app[0].connectPort 1100
param **.source_001.app[0].startTime 0s
param **.source_001.app[0].idleInterval 1000s
param **.source_001.app[0].requestLength 1300B
param **.source_001.app[0].replyLength 20B
param **.source_001.app[0].thinkTime 0s
param **.source_001.app[0].numRequestsPerSession 4
param **.source_002.numApps 1
param **.source_002.app[0].typename "\"TcpBasicClientApp\""
param **.source_002.app[0].localAddress "\"\""
param **.source_002.app[0].connectAddress "\"sink_002\""
param **.source_002.app[0].connectPort 1100
param **.source_002.app[0].startTime 0s
param **.source_002.app[0].idleInterval 1000s
param **.source_002.app[0].requestLength 1300B
param **.source_002.app[0].replyLength 20B
param **.source_002.app[0].thinkTime 0s
param **.source_002.app[0].numRequestsPerSession 745
param **.source_003.numApps 1
param **.source_003.app[0].typename "\"TcpBasicClientApp\""
param **.source_003.app[0].localAddress "\"\""
param **.source_003.app[0].connectAddress "\"sink_003\""
param **.source_003.app[0].connectPort 1100
param **.source_003.app[0].startTime 0s
param **.source_003.app[0].idleInterval 1000s
param **.source_003.app[0].requestLength 1300B
param **.source_003.app[0].replyLength 20B
param **.source_003.app[0].thinkTime 0s
param **.source_003.app[0].numRequestsPerSession 5
param **.source_004.numApps 1
param **.source_004.app[0].typename "\"TcpBasicClientApp\""
param **.source_004.app[0].localAddress "\"\""
param **.source_004.app[0].connectAddress "\"sink_004\""
param **.source_004.app[0].connectPort 1100
param **.source_004.app[0].startTime 0s
param **.source_004.app[0].idleInterval 1000s
param **.source_004.app[0].requestLength 1300B
param **.source_004.app[0].replyLength 20B
param **.source_004.app[0].thinkTime 0s
param **.source_004.app[0].numRequestsPerSession 10
param **.source_005.numApps 1
param **.source_005.app[0].typename "\"TcpBasicClientApp\""
param **.source_005.app[0].localAddress "\"\""
param **.source_005.app[0].connectAddress "\"sink_005\""
param **.source_005.app[0].connectPort 1100
param **.source_005.app[0].startTime 0s
param **.source_005.app[0].idleInterval 1000s
param **.source_005.app[0].requestLength 1300B
param **.source_005.app[0].replyLength 20B
param **.source_005.app[0].thinkTime 0s
param **.source_005.app[0].numRequestsPerSession 295
param **.source_006.numApps 1
param **.source_006.app[0].typename "\"TcpBasicClientApp\""
param **.source_006.app[0].localAddress "\"\""
param **.source_006.app[0].connectAddress "\"sink_006\""
param **.source_006.app[0].connectPort 1100
param **.source_006.app[0].startTime 0s
param **.source_006.app[0].idleInterval 1000s
param **.source_006.app[0].requestLength 1300B
param **.source_006.app[0].replyLength 20B
param **.source_006.app[0].thinkTime 0s
param **.source_006.app[0].numRequestsPerSession 1
param **.source_007.numApps 1
param **.source_007.app[0].typename "\"TcpBasicClientApp\""
param **.source_007.app[0].localAddress "\"\""
param **.source_007.app[0].connectAddress "\"sink_007\""
param **.source_007.app[0].connectPort 1100
param **.source_007.app[0].startTime 0s
param **.source_007.app[0].idleInterval 1000s
param **.source_007.app[0].requestLength 1300B
param **.source_007.app[0].replyLength 20B
param **.source_007.app[0].thinkTime 0s
param **.source_007.app[0].numRequestsPerSession 2
param **.source_008.numApps 1
param **.source_008.app[0].typename "\"TcpBasicClientApp\""
param **.source_008.app[0].localAddress "\"\""
param **.source_008.app[0].connectAddress "\"sink_008\""
param **.source_008.app[0].connectPort 1100
param **.source_008.app[0].startTime 0s
param **.source_008.app[0].idleInterval 1000s
param **.source_008.app[0].requestLength 1300B
param **.source_008.app[0].replyLength 20B
param **.source_008.app[0].thinkTime 0s
param **.source_008.app[0].numRequestsPerSession 12
param **.source_009.numApps 1
param **.source_009.app[0].typename "\"TcpBasicClientApp\""
param **.source_009.app[0].localAddress "\"\""
param **.source_009.app[0].connectAddress "\"sink_009\""
param **.source_009.app[0].connectPort 1100
param **.source_009.app[0].startTime 0s
param **.source_009.app[0].idleInterval 1000s
param **.source_009.app[0].requestLength 1300B
param **.source_009.app[0].replyLength 20B
param **.source_009.app[0].thinkTime 0s
param **.source_009.app[0].numRequestsPerSession 4
param **.source_010.numApps 1
param **.source_010.app[0].typename "\"TcpBasicClientApp\""
param **.source_010.app[0].localAddress "\"\""
param **.source_010.app[0].connectAddress "\"sink_010\""
param **.source_010.app[0].connectPort 1100
param **.source_010.app[0].startTime 0s
param **.source_010.app[0].idleInterval 1000s
param **.source_010.app[0].requestLength 1300B
param **.source_010.app[0].replyLength 20B
param **.source_010.app[0].thinkTime 0s
param **.source_010.app[0].numRequestsPerSession 5
param **.source_011.numApps 1
param **.source_011.app[0].typename "\"TcpBasicClientApp\""
param **.source_011.app[0].localAddress "\"\""
param **.source_011.app[0].connectAddress "\"sink_011\""
param **.source_011.app[0].connectPort 1100
param **.source_011.app[0].startTime 0s
param **.source_011.app[0].idleInterval 1000s
param **.source_011.app[0].requestLength 1300B
param **.source_011.app[0].replyLength 20B
param **.source_011.app[0].thinkTime 0s
param **.source_011.app[0].numRequestsPerSession 4
param **.source_012.numApps 1
param **.source_012.app[0].typename "\"TcpBasicClientApp\""
param **.source_012.app[0].localAddress "\"\""
param **.source_012.app[0].connectAddress "\"sink_012\""
param **.source_012.app[0].connectPort 1100
param **.source_012.app[0].startTime 0s
param **.source_012.app[0].idleInterval 1000s
param **.source_012.app[0].requestLength 1300B
param **.source_012.app[0].replyLength 20B
param **.source_012.app[0].thinkTime 0s
param **.source_012.app[0].numRequestsPerSession 31
param **.source_013.numApps 1
param **.source_013.app[0].typename "\"TcpBasicClientApp\""
param **.source_013.app[0].localAddress "\"\""
param **.source_013.app[0].connectAddress "\"sink_013\""
param **.source_013.app[0].connectPort 1100
param **.source_013.app[0].startTime 0s
param **.source_013.app[0].idleInterval 1000s
param **.source_013.app[0].requestLength 1300B
param **.source_013.app[0].replyLength 20B
param **.source_013.app[0].thinkTime 0s
param **.source_013.app[0].numRequestsPerSession 2
param **.source_014.numApps 1
param **.source_014.app[0].typename "\"TcpBasicClientApp\""
param **.source_014.app[0].localAddress "\"\""
param **.source_014.app[0].connectAddress "\"sink_014\""
param **.source_014.app[0].connectPort 1100
param **.source_014.app[0].startTime 0s
param **.source_014.app[0].idleInterval 1000s
param **.source_014.app[0].requestLength 1300B
param **.source_014.app[0].replyLength 20B
param **.source_014.app[0].thinkTime 0s
param **.source_014.app[0].numRequestsPerSession 110
param **.source_015.numApps 1
param **.source_015.app[0].typename "\"TcpBasicClientApp\""
param **.source_015.app[0].localAddress "\"\""
param **.source_015.app[0].connectAddress "\"sink_015\""
param **.source_015.app[0].connectPort 1100
param **.source_015.app[0].startTime 0s
param **.source_015.app[0].idleInterval 1000s
param **.source_015.app[0].requestLength 1300B
param **.source_015.app[0].replyLength 20B
param **.source_015.app[0].thinkTime 0s
param **.source_015.app[0].numRequestsPerSession 293
param **.source_016.numApps 1
param **.source_016.app[0].typename "\"TcpBasicClientApp\""
param **.source_016.app[0].localAddress "\"\""
param **.source_016.app[0].connectAddress "\"sink_016\""
param **.source_016.app[0].connectPort 1100
param **.source_016.app[0].startTime 0s
param **.source_016.app[0].idleInterval 1000s
param **.source_016.app[0].requestLength 1300B
param **.source_016.app[0].replyLength 20B
param **.source_016.app[0].thinkTime 0s
param **.source_016.app[0].numRequestsPerSession 34
param **.source_017.numApps 1
param **.source_017.app[0].typename "\"TcpBasicClientApp\""
param **.source_017.app[0].localAddress "\"\""
param **.source_017.app[0].connectAddress "\"sink_017\""
param **.source_017.app[0].connectPort 1100
param **.source_017.app[0].startTime 0s
param **.source_017.app[0].idleInterval 1000s
param **.source_017.app[0].requestLength 1300B
param **.source_017.app[0].replyLength 20B
param **.source_017.app[0].thinkTime 0s
param **.source_017.app[0].numRequestsPerSession 1
param **.source_018.numApps 1
param **.source_018.app[0].typename "\"TcpBasicClientApp\""
param **.source_018.app[0].localAddress "\"\""
param **.source_018.app[0].connectAddress "\"sink_018\""
param **.source_018.app[0].connectPort 1100
param **.source_018.app[0].startTime 0s
param **.source_018.app[0].idleInterval 1000s
param **.source_018.app[0].requestLength 1300B
param **.source_018.app[0].replyLength 20B
param **.source_018.app[0].thinkTime 0s
param **.source_018.app[0].numRequestsPerSession 2
param **.source_019.numApps 1
param **.source_019.app[0].typename "\"TcpBasicClientApp\""
param **.source_019.app[0].localAddress "\"\""
param **.source_019.app[0].connectAddress "\"sink_019\""
param **.source_019.app[0].connectPort 1100
param **.source_019.app[0].startTime 0s
param **.source_019.app[0].idleInterval 1000s
param **.source_019.app[0].requestLength 1300B
param **.source_019.app[0].replyLength 20B
param **.source_019.app[0].thinkTime 0s
param **.source_019.app[0].numRequestsPerSession 2
param **.source_020.numApps 1
param **.source_020.app[0].typename "\"TcpBasicClientApp\""
param **.source_020.app[0].localAddress "\"\""
param **.source_020.app[0].connectAddress "\"sink_020\""
param **.source_020.app[0].connectPort 1100
param **.source_020.app[0].startTime 0s
param **.source_020.app[0].idleInterval 1000s
param **.source_020.app[0].requestLength 1300B
param **.source_020.app[0].replyLength 20B
param **.source_020.app[0].thinkTime 0s
param **.source_020.app[0].numRequestsPerSession 3
param **.source_021.numApps 1
param **.source_021.app[0].typename "\"TcpBasicClientApp\""
param **.source_021.app[0].localAddress "\"\""
param **.source_021.app[0].connectAddress "\"sink_021\""
param **.source_021.app[0].connectPort 1100
param **.source_021.app[0].startTime 0s
param **.source_021.app[0].idleInterval 1000s
param **.source_021.app[0].requestLength 1300B
param **.source_021.app[0].replyLength 20B
param **.source_021.app[0].thinkTime 0s
param **.source_021.app[0].numRequestsPerSession 77
param **.source_022.numApps 1
param **.source_022.app[0].typename "\"TcpBasicClientApp\""
param **.source_022.app[0].localAddress "\"\""
param **.source_022.app[0].connectAddress "\"sink_022\""
param **.source_022.app[0].connectPort 1100
param **.source_022.app[0].startTime 0s
param **.source_022.app[0].idleInterval 1000s
param **.source_022.app[0].requestLength 1300B
param **.source_022.app[0].replyLength 20B
param **.source_022.app[0].thinkTime 0s
param **.source_022.app[0].numRequestsPerSession 40
param **.source_023.numApps 1
param **.source_023.app[0].typename "\"TcpBasicClientApp\""
param **.source_023.app[0].localAddress "\"\""
param **.source_023.app[0].connectAddress "\"sink_023\""
param **.source_023.app[0].connectPort 1100
param **.source_023.app[0].startTime 0s
param **.source_023.app[0].idleInterval 1000s
param **.source_023.app[0].requestLength 1300B
param **.source_023.app[0].replyLength 20B
param **.source_023.app[0].thinkTime 0s
param **.source_023.app[0].numRequestsPerSession 9
param **.source_024.numApps 1
param **.source_024.app[0].typename "\"TcpBasicClientApp\""
param **.source_024.app[0].localAddress "\"\""
param **.source_024.app[0].connectAddress "\"sink_024\""
param **.source_024.app[0].connectPort 1100
param **.source_024.app[0].startTime 0s
param **.source_024.app[0].idleInterval 1000s
param **.source_024.app[0].requestLength 1300B
param **.source_024.app[0].replyLength 20B
param **.source_024.app[0].thinkTime 0s
param **.source_024.app[0].numRequestsPerSession 4
param **.source_025.numApps 1
param **.source_025.app[0].typename "\"TcpBasicClientApp\""
param **.source_025.app[0].localAddress "\"\""
param **.source_025.app[0].connectAddress "\"sink_025\""
param **.source_025.app[0].connectPort 1100
param **.source_025.app[0].startTime 0s
param **.source_025.app[0].idleInterval 1000s
param **.source_025.app[0].requestLength 1300B
param **.source_025.app[0].replyLength 20B
param **.source_025.app[0].thinkTime 0s
param **.source_025.app[0].numRequestsPerSession 8
param **.source_026.numApps 1
param **.source_026.app[0].typename "\"TcpBasicClientApp\""
param **.source_026.app[0].localAddress "\"\""
param **.source_026.app[0].connectAddress "\"sink_026\""
param **.source_026.app[0].connectPort 1100
param **.source_026.app[0].startTime 0s
param **.source_026.app[0].idleInterval 1000s
param **.source_026.app[0].requestLength 1300B
param **.source_026.app[0].replyLength 20B
param **.source_026.app[0].thinkTime 0s
param **.source_026.app[0].numRequestsPerSession 7
param **.source_027.numApps 1
param **.source_027.app[0].typename "\"TcpBasicClientApp\""
param **.source_027.app[0].localAddress "\"\""
param **.source_027.app[0].connectAddress "\"sink_027\""
param **.source_027.app[0].connectPort 1100
param **.source_027.app[0].startTime 0s
param **.source_027.app[0].idleInterval 1000s
param **.source_027.app[0].requestLength 1300B
param **.source_027.app[0].replyLength 20B
param **.source_027.app[0].thinkTime 0s
param **.source_027.app[0].numRequestsPerSession 48
param **.source_028.numApps 1
param **.source_028.app[0].typename "\"TcpBasicClientApp\""
param **.source_028.app[0].localAddress "\"\""
param **.source_028.app[0].connectAddress "\"sink_028\""
param **.source_028.app[0].connectPort 1100
param **.source_028.app[0].startTime 0s
param **.source_028.app[0].idleInterval 1000s
param **.source_028.app[0].requestLength 1300B
param **.source_028.app[0].replyLength 20B
param **.source_028.app[0].thinkTime 0s
param **.source_028.app[0].numRequestsPerSession 2
param **.source_029.numApps 1
param **.source_029.app[0].typename "\"TcpBasicClientApp\""
param **.source_029.app[0].localAddress "\"\""
param **.source_029.app[0].connectAddress "\"sink_029\""
param **.source_029.app[0].connectPort 1100
param **.source_029.app[0].startTime 0s
param **.source_029.app[0].idleInterval 1000s
param **.source_029.app[0].requestLength 1300B
param **.source_029.app[0].replyLength 20B
param **.source_029.app[0].thinkTime 0s
param **.source_029.app[0].numRequestsPerSession 8
param **.source_030.numApps 1
param **.source_030.app[0].typename "\"TcpBasicClientApp\""
param **.source_030.app[0].localAddress "\"\""
param **.source_030.app[0].connectAddress "\"sink_030\""
param **.source_030.app[0].connectPort 1100
param **.source_030.app[0].startTime 0s
param **.source_030.app[0].idleInterval 1000s
param **.source_030.app[0].requestLength 1300B
param **.source_030.app[0].replyLength 20B
param **.source_030.app[0].thinkTime 0s
param **.source_030.app[0].numRequestsPerSession 7
param **.source_031.numApps 1
param **.source_031.app[0].typename "\"TcpBasicClientApp\""
param **.source_031.app[0].localAddress "\"\""
param **.source_031.app[0].connectAddress "\"sink_031\""
param **.source_031.app[0].connectPort 1100
param **.source_031.app[0].startTime 0s
param **.source_031.app[0].idleInterval 1000s
param **.source_031.app[0].requestLength 1300B
param **.source_031.app[0].replyLength 20B
param **.source_031.app[0].thinkTime 0s
param **.source_031.app[0].numRequestsPerSession 7
param **.source_032.numApps 1
param **.source_032.app[0].typename "\"TcpBasicClientApp\""
param **.source_032.app[0].localAddress "\"\""
param **.source_032.app[0].connectAddress "\"sink_032\""
param **.source_032.app[0].connectPort 1100
param **.source_032.app[0].startTime 0s
param **.source_032.app[0].idleInterval 1000s
param **.source_032.app[0].requestLength 1300B
param **.source_032.app[0].replyLength 20B
param **.source_032.app[0].thinkTime 0s
param **.source_032.app[0].numRequestsPerSession 14
param **.source_033.numApps 1
param **.source_033.app[0].typename "\"TcpBasicClientApp\""
param **.source_033.app[0].localAddress "\"\""
param **.source_033.app[0].connectAddress "\"sink_033\""
param **.source_033.app[0].connectPort 1100
param **.source_033.app[0].startTime 0s
param **.source_033.app[0].idleInterval 1000s
param **.source_033.app[0].requestLength 1300B
param **.source_033.app[0].replyLength 20B
param **.source_033.app[0].thinkTime 0s
param **.source_033.app[0].numRequestsPerSession 13
param **.source_034.numApps 1
param **.source_034.app[0].typename "\"TcpBasicClientApp\""
param **.source_034.app[0].localAddress "\"\""
param **.source_034.app[0].connectAddress "\"sink_034\""
param **.source_034.app[0].connectPort 1100
param **.source_034.app[0].startTime 0s
param **.source_034.app[0].idleInterval 1000s
param **.source_034.app[0].requestLength 1300B
param **.source_034.app[0].replyLength 20B
param **.source_034.app[0].thinkTime 0s
param **.source_034.app[0].numRequestsPerSession 167
param **.source_035.numApps 1
param **.source_035.app[0].typename "\"TcpBasicClientApp\""
param **.source_035.app[0].localAddress "\"\""
param **.source_035.app[0].connectAddress "\"sink_035\""
param **.source_035.app[0].connectPort 1100
param **.source_035.app[0].startTime 0s
param **.source_035.app[0].idleInterval 1000s
param **.source_035.app[0].requestLength 1300B
param **.source_035.app[0].replyLength 20B
param **.source_035.app[0].thinkTime 0s
param **.source_035.app[0].numRequestsPerSession 7
param **.source_036.numApps 1
param **.source_036.app[0].typename "\"TcpBasicClientApp\""
param **.source_036.app[0].localAddress "\"\""
param **.source_036.app[0].connectAddress "\"sink_036\""
param **.source_036.app[0].connectPort 1100
param **.source_036.app[0].startTime 0s
param **.source_036.app[0].idleInterval 1000s
param **.source_036.app[0].requestLength 1300B
param **.source_036.app[0].replyLength 20B
param **.source_036.app[0].thinkTime 0s
param **.source_036.app[0].numRequestsPerSession 281
param **.source_037.numApps 1
param **.source_037.app[0].typename "\"TcpBasicClientApp\""
param **.source_037.app[0].localAddress "\"\""
param **.source_037.app[0].connectAddress "\"sink_037\""
param **.source_037.app[0].connectPort 1100
param **.source_037.app[0].startTime 0s
param **.source_037.app[0].idleInterval 1000s
param **.source_037.app[0].requestLength 1300B
param **.source_037.app[0].replyLength 20B
param **.source_037.app[0].thinkTime 0s
param **.source_037.app[0].numRequestsPerSession 4
param **.source_038.numApps 1
param **.source_038.app[0].typename "\"TcpBasicClientApp\""
param **.source_038.app[0].localAddress "\"\""
param **.source_038.app[0].connectAddress "\"sink_038\""
param **.source_038.app[0].connectPort 1100
param **.source_038.app[0].startTime 0s
param **.source_038.app[0].idleInterval 1000s
param **.source_038.app[0].requestLength 1300B
param **.source_038.app[0].replyLength 20B
param **.source_038.app[0].thinkTime 0s
param **.source_038.app[0].numRequestsPerSession 3
param **.source_039.numApps 1
param **.source_039.app[0].typename "\"TcpBasicClientApp\""
param **.source_039.app[0].localAddress "\"\""
param **.source_039.app[0].connectAddress "\"sink_039\""
param **.source_039.app[0].connectPort 1100
param **.source_039.app[0].startTime 0s
param **.source_039.app[0].idleInterval 1000s
param **.source_039.app[0].requestLength 1300B
param **.source_039.app[0].replyLength 20B
param **.source_039.app[0].thinkTime 0s
param **.source_039.app[0].numRequestsPerSession 10
param **.source_040.numApps 1
param **.source_040.app[0].typename "\"TcpBasicClientApp\""
param **.source_040.app[0].localAddress "\"\""
param **.source_040.app[0].connectAddress "\"sink_040\""
param **.source_040.app[0].connectPort 1100
param **.source_040.app[0].startTime 0s
param **.source_040.app[0].idleInterval 1000s
param **.source_040.app[0].requestLength 1300B
param **.source_040.app[0].replyLength 20B
param **.source_040.app[0].thinkTime 0s
param **.source_040.app[0].numRequestsPerSession 18
param **.source_041.numApps 1
param **.source_041.app[0].typename "\"TcpBasicClientApp\""
param **.source_041.app[0].localAddress "\"\""
param **.source_041.app[0].connectAddress "\"sink_041\""
param **.source_041.app[0].connectPort 1100
param **.source_041.app[0].startTime 0s
param **.source_041.app[0].idleInterval 1000s
param **.source_041.app[0].requestLength 1300B
param **.source_041.app[0].replyLength 20B
param **.source_041.app[0].thinkTime 0s
param **.source_041.app[0].numRequestsPerSession 6
param **.source_042.numApps 1
param **.source_042.app[0].typename "\"TcpBasicClientApp\""
param **.source_042.app[0].localAddress "\"\""
param **.source_042.app[0].connectAddress "\"sink_042\""
param **.source_042.app[0].connectPort 1100
param **.source_042.app[0].startTime 0s
param **.source_042.app[0].idleInterval 1000s
param **.source_042.app[0].requestLength 1300B
param **.source_042.app[0].replyLength 20B
param **.source_042.app[0].thinkTime 0s
param **.source_042.app[0].numRequestsPerSession 151
param **.source_043.numApps 1
param **.source_043.app[0].typename "\"TcpBasicClientApp\""
param **.source_043.app[0].localAddress "\"\""
param **.source_043.app[0].connectAddress "\"sink_043\""
param **.source_043.app[0].connectPort 1100
param **.source_043.app[0].startTime 0s
param **.source_043.app[0].idleInterval 1000s
param **.source_043.app[0].requestLength 1300B
param **.source_043.app[0].replyLength 20B
param **.source_043.app[0].thinkTime 0s
param **.source_043.app[0].numRequestsPerSession 107
param **.source_044.numApps 1
param **.source_044.app[0].typename "\"TcpBasicClientApp\""
param **.source_044.app[0].localAddress "\"\""
param **.source_044.app[0].connectAddress "\"sink_044\""
param **.source_044.app[0].connectPort 1100
param **.source_044.app[0].startTime 0s
param **.source_044.app[0].idleInterval 1000s
param **.source_044.app[0].requestLength 1300B
param **.source_044.app[0].replyLength 20B
param **.source_044.app[0].thinkTime 0s
param **.source_044.app[0].numRequestsPerSession 25
param **.source_045.numApps 1
param **.source_045.app[0].typename "\"TcpBasicClientApp\""
param **.source_045.app[0].localAddress "\"\""
param **.source_045.app[0].connectAddress "\"sink_045\""
param **.source_045.app[0].connectPort 1100
param **.source_045.app[0].startTime 0s
param **.source_045.app[0].idleInterval 1000s
param **.source_045.app[0].requestLength 1300B
param **.source_045.app[0].replyLength 20B
param **.source_045.app[0].thinkTime 0s
param **.source_045.app[0].numRequestsPerSession 4
param **.source_046.numApps 1
param **.source_046.app[0].typename "\"TcpBasicClientApp\""
param **.source_046.app[0].localAddress "\"\""
param **.source_046.app[0].connectAddress "\"sink_046\""
param **.source_046.app[0].connectPort 1100
param **.source_046.app[0].startTime 0s
param **.source_046.app[0].idleInterval 1000s
param **.source_046.app[0].requestLength 1300B
param **.source_046.app[0].replyLength 20B
param **.source_046.app[0].thinkTime 0s
param **.source_046.app[0].numRequestsPerSession 7
param **.source_047.numApps 1
param **.source_047.app[0].typename "\"TcpBasicClientApp\""
param **.source_047.app[0].localAddress "\"\""
param **.source_047.app[0].connectAddress "\"sink_047\""
param **.source_047.app[0].connectPort 1100
param **.source_047.app[0].startTime 0s
param **.source_047.app[0].idleInterval 1000s
param **.source_047.app[0].requestLength 1300B
param **.source_047.app[0].replyLength 20B
param **.source_047.app[0].thinkTime 0s
param **.source_047.app[0].numRequestsPerSession 200
param **.source_048.numApps 1
param **.source_048.app[0].typename "\"TcpBasicClientApp\""
param **.source_048.app[0].localAddress "\"\""
param **.source_048.app[0].connectAddress "\"sink_048\""
param **.source_048.app[0].connectPort 1100
param **.source_048.app[0].startTime 0s
param **.source_048.app[0].idleInterval 1000s
param **.source_048.app[0].requestLength 1300B
param **.source_048.app[0].replyLength 20B
param **.source_048.app[0].thinkTime 0s
param **.source_048.app[0].numRequestsPerSession 13
param **.source_049.numApps 1
param **.source_049.app[0].typename "\"TcpBasicClientApp\""
param **.source_049.app[0].localAddress "\"\""
param **.source_049.app[0].connectAddress "\"sink_049\""
param **.source_049.app[0].connectPort 1100
param **.source_049.app[0].startTime 0s
param **.source_049.app[0].idleInterval 1000s
param **.source_049.app[0].requestLength 1300B
param **.source_049.app[0].replyLength 20B
param **.source_049.app[0].thinkTime 0s
param **.source_049.app[0].numRequestsPerSession 2
param **.source_050.numApps 1
param **.source_050.app[0].typename "\"TcpBasicClientApp\""
param **.source_050.app[0].localAddress "\"\""
param **.source_050.app[0].connectAddress "\"sink_050\""
param **.source_050.app[0].connectPort 1100
param **.source_050.app[0].startTime 0s
param **.source_050.app[0].idleInterval 1000s
param **.source_050.app[0].requestLength 1300B
param **.source_050.app[0].replyLength 20B
param **.source_050.app[0].thinkTime 0s
param **.source_050.app[0].numRequestsPerSession 3
param **.source_051.numApps 1
param **.source_051.app[0].typename "\"TcpBasicClientApp\""
param **.source_051.app[0].localAddress "\"\""
param **.source_051.app[0].connectAddress "\"sink_051\""
param **.source_051.app[0].connectPort 1100
param **.source_051.app[0].startTime 0s
param **.source_051.app[0].idleInterval 1000s
param **.source_051.app[0].requestLength 1300B
param **.source_051.app[0].replyLength 20B
param **.source_051.app[0].thinkTime 0s
param **.source_051.app[0].numRequestsPerSession 110
param **.source_052.numApps 1
param **.source_052.app[0].typename "\"TcpBasicClientApp\""
param **.source_052.app[0].localAddress "\"\""
param **.source_052.app[0].connectAddress "\"sink_052\""
param **.source_052.app[0].connectPort 1100
param **.source_052.app[0].startTime 0s
param **.source_052.app[0].idleInterval 1000s
param **.source_052.app[0].requestLength 1300B
param **.source_052.app[0].replyLength 20B
param **.source_052.app[0].thinkTime 0s
param **.source_052.app[0].numRequestsPerSession 7
param **.source_053.numApps 1
param **.source_053.app[0].typename "\"TcpBasicClientApp\""
param **.source_053.app[0].localAddress "\"\""
param **.source_053.app[0].connectAddress "\"sink_053\""
param **.source_053.app[0].connectPort 1100
param **.source_053.app[0].startTime 0s
param **.source_053.app[0].idleInterval 1000s
param **.source_053.app[0].requestLength 1300B
param **.source_053.app[0].replyLength 20B
param **.source_053.app[0].thinkTime 0s
param **.source_053.app[0].numRequestsPerSession 148
param **.tcp.mss 1400
param **.tcp.tcpAlgorithmClass "\"TcpReno\""
param **.tcp.crcMode "\"computed\""
param **.app[*].dataTransferMode "\"object\""

vector 0 Jellyfish_8_8_7_8__jelly_vary_num_switches_seed5.source_000.app[0] numActiveSessions:vector ETV
attr interpolationmode sample-hold
attr source sum(connect)
attr title "number of active sessions, vector"
vector 1 Jellyfish_8_8_7_8__jelly_vary_num_switches_seed5.source_001.app[0] numActiveSessions:vector ETV
attr interpolationmode sample-hold
attr source sum(connect)
attr title "number of active sessions, vector"
vector 2 Jellyfish_8_8_7_8__jelly_vary_num_switches_seed5.source_002.app[0] numActiveSessions:vector ETV
attr interpolationmode sample-hold
attr source sum(connect)
attr title "number of active sessions, vector"
vector 3 Jellyfish_8_8_7_8__jelly_vary_num_switches_seed5.source_003.app[0] numActiveSessions:vector ETV
attr interpolationmode sample-hold
attr source sum(connect)
attr title "number of active sessions, vector"
vector 4 Jellyfish_8_8_7_8__jelly_vary_num_switches_seed5.source_004.app[0] numActiveSessions:vector ETV
attr interpolationmode sample-hold
attr source sum(connect)
attr title "number of active sessions, vector"
vector 5 Jellyfish_8_8_7_8__jelly_vary_num_switches_seed5.source_005.app[0] numActiveSessions:vector ETV
attr interpolationmode sample-hold
attr source sum(connect)
attr title "number of active sessions, vector"
vector 6 Jellyfish_8_8_7_8__jelly_vary_num_switches_seed5.source_006.app[0] numActiveSessions:vector ETV
attr interpolationmode sample-hold
attr source sum(connect)
attr title "number of active sessions, vector"
vector 7 Jellyfish_8_8_7_8__jelly_vary_num_switches_seed5.source_007.app[0] numActiveSessions:vector ETV
attr interpolationmode sample-hold
attr source sum(connect)
attr title "number of active sessions, vector"
vector 8 Jellyfish_8_8_7_8__jelly_vary_num_switches_seed5.source_008.app[0] numActiveSessions:vector ETV
attr interpolationmode sample-hold
attr source sum(connect)
attr title "number of active sessions, vector"
vector 9 Jellyfish_8_8_7_8__jelly_vary_num_switches_seed5.source_009.app[0] numActiveSessions:vector ETV
attr interpolationmode sample-hold
attr source sum(connect)
attr title "number of active sessions, vector"
vector 10 Jellyfish_8_8_7_8__jelly_vary_num_switches_seed5.source_010.app[0] numActiveSessions:vector ETV
attr interpolationmode sample-hold
attr source sum(connect)
attr title "number of active sessions, vector"
vector 11 Jellyfish_8_8_7_8__jelly_vary_num_switches_seed5.source_011.app[0] numActiveSessions:vector ETV
attr interpolationmode sample-hold
attr source sum(connect)
attr title "number of active sessions, vector"
vector 12 Jellyfish_8_8_7_8__jelly_vary_num_switches_seed5.source_012.app[0] numActiveSessions:vector ETV
attr interpolationmode sample-hold
attr source sum(connect)
attr title "number of active sessions, vector"
vector 13 Jellyfish_8_8_7_8__jelly_vary_num_switches_seed5.source_013.app[0] numActiveSessions:vector ETV
attr interpolationmode sample-hold
attr source sum(connect)
attr title "number of active sessions, vector"
vector 14 Jellyfish_8_8_7_8__jelly_vary_num_switches_seed5.source_014.app[0] numActiveSessions:vector ETV
attr interpolationmode sample-hold
attr source sum(connect)
attr title "number of active sessions, vector"
vector 15 Jellyfish_8_8_7_8__jelly_vary_num_switches_seed5.source_015.app[0] numActiveSessions:vector ETV
attr interpolationmode sample-hold
attr source sum(connect)
attr title "number of active sessions, vector"
vector 16 Jellyfish_8_8_7_8__jelly_vary_num_switches_seed5.source_016.app[0] numActiveSessions:vector ETV
attr interpolationmode sample-hold
attr source sum(connect)
attr title "number of active sessions, vector"
vector 17 Jellyfish_8_8_7_8__jelly_vary_num_switches_seed5.source_017.app[0] numActiveSessions:vector ETV
attr interpolationmode sample-hold
attr source sum(connect)
attr title "number of active sessions, vector"
vector 18 Jellyfish_8_8_7_8__jelly_vary_num_switches_seed5.source_018.app[0] numActiveSessions:vector ETV
attr interpolationmode sample-hold
attr source sum(connect)
attr title "number of active sessions, vector"
vector 19 Jellyfish_8_8_7_8__jelly_vary_num_switches_seed5.source_019.app[0] numActiveSessions:vector ETV
attr interpolationmode sample-hold
attr source sum(connect)
attr title "number of active sessions, vector"
vector 20 Jellyfish_8_8_7_8__jelly_vary_num_switches_seed5.source_020.app[0] numActiveSessions:vector ETV
attr interpolationmode sample-hold
attr source sum(connect)
attr title "number of active sessions, vector"
vector 21 Jellyfish_8_8_7_8__jelly_vary_num_switches_seed5.source_021.app[0] numActiveSessions:vector ETV
attr interpolationmode sample-hold
attr source sum(connect)
attr title "number of active sessions, vector"
vector 22 Jellyfish_8_8_7_8__jelly_vary_num_switches_seed5.source_022.app[0] numActiveSessions:vector ETV
attr interpolationmode sample-hold
attr source sum(connect)
attr title "number of active sessions, vector"
vector 23 Jellyfish_8_8_7_8__jelly_vary_num_switches_seed5.source_023.app[0] numActiveSessions:vector ETV
attr interpolationmode sample-hold
attr source sum(connect)
attr title "number of active sessions, vector"
vector 24 Jellyfish_8_8_7_8__jelly_vary_num_switches_seed5.source_024.app[0] numActiveSessions:vector ETV
attr interpolationmode sample-hold
attr source sum(connect)
attr title "number of active sessions, vector"
vector 25 Jellyfish_8_8_7_8__jelly_vary_num_switches_seed5.source_025.app[0] numActiveSessions:vector ETV
attr interpolationmode sample-hold
attr source sum(connect)
attr title "number of active sessions, vector"
vector 26 Jellyfish_8_8_7_8__jelly_vary_num_switches_seed5.source_026.app[0] numActiveSessions:vector ETV
attr interpolationmode sample-hold
attr source sum(connect)
attr title "number of active sessions, vector"
vector 27 Jellyfish_8_8_7_8__jelly_vary_num_switches_seed5.source_027.app[0] numActiveSessions:vector ETV
attr interpolationmode sample-hold
attr source sum(connect)
attr title "number of active sessions, vector"
vector 28 Jellyfish_8_8_7_8__jelly_vary_num_switches_seed5.source_028.app[0] numActiveSessions:vector ETV
attr interpolationmode sample-hold
attr source sum(connect)
attr title "number of active sessions, vector"
vector 29 Jellyfish_8_8_7_8__jelly_vary_num_switches_seed5.source_029.app[0] numActiveSessions:vector ETV
attr interpolationmode sample-hold
attr source sum(connect)
attr title "number of active sessions, vector"
vector 30 Jellyfish_8_8_7_8__jelly_vary_num_switches_seed5.source_030.app[0] numActiveSessions:vector ETV
attr interpolationmode sample-hold
attr source sum(connect)
attr title "number of active sessions, vector"
vector 31 Jellyfish_8_8_7_8__jelly_vary_num_switches_seed5.source_031.app[0] numActiveSessions:vector ETV
attr interpolationmode sample-hold
attr source sum(connect)
attr title "number of active sessions, vector"
vector 32 Jellyfish_8_8_7_8__jelly_vary_num_switches_seed5.source_032.app[0] numActiveSessions:vector ETV
attr interpolationmode sample-hold
attr source sum(connect)
attr title "number of active sessions, vector"
vector 33 Jellyfish_8_8_7_8__jelly_vary_num_switches_seed5.source_033.app[0] numActiveSessions:vector ETV
attr interpolationmode sample-hold
attr source sum(connect)
attr title "number of active sessions, vector"
vector 34 Jellyfish_8_8_7_8__jelly_vary_num_switches_seed5.source_034.app[0] numActiveSessions:vector ETV
attr interpolationmode sample-hold
attr source sum(connect)
attr title "number of active sessions, vector"
vector 35 Jellyfish_8_8_7_8__jelly_vary_num_switches_seed5.source_035.app[0] numActiveSessions:vector ETV
attr interpolationmode sample-hold
attr source sum(connect)
attr title "number of active sessions, vector"
vector 36 Jellyfish_8_8_7_8__jelly_vary_num_switches_seed5.source_036.app[0] numActiveSessions:vector ETV
attr interpolationmode sample-hold
attr source sum(connect)
attr title "number of active sessions, vector"
vector 37 Jellyfish_8_8_7_8__jelly_vary_num_switches_seed5.source_037.app[0] numActiveSessions:vector ETV
attr interpolationmode sample-hold
attr source sum(connect)
attr title "number of active sessions, vector"
vector 38 Jellyfish_8_8_7_8__jelly_vary_num_switches_seed5.source_038.app[0] numActiveSessions:vector ETV
attr interpolationmode sample-hold
attr source sum(connect)
attr title "number of active sessions, vector"
vector 39 Jellyfish_8_8_7_8__jelly_vary_num_switches_seed5.source_039.app[0] numActiveSessions:vector ETV
attr interpolationmode sample-hold
attr source sum(connect)
attr title "number of active sessions, vector"
vector 40 Jellyfish_8_8_7_8__jelly_vary_num_switches_seed5.source_040.app[0] numActiveSessions:vector ETV
attr interpolationmode sample-hold
attr source sum(connect)
attr title "number of active sessions, vector"
vector 41 Jellyfish_8_8_7_8__jelly_vary_num_switches_seed5.source_041.app[0] numActiveSessions:vector ETV
attr interpolationmode sample-hold
attr source sum(connect)
attr title "number of active sessions, vector"
vector 42 Jellyfish_8_8_7_8__jelly_vary_num_switches_seed5.source_042.app[0] numActiveSessions:vector ETV
attr interpolationmode sample-hold
attr source sum(connect)
attr title "number of active sessions, vector"
vector 43 Jellyfish_8_8_7_8__jelly_vary_num_switches_seed5.source_043.app[0] numActiveSessions:vector ETV
attr interpolationmode sample-hold
attr source sum(connect)
attr title "number of active sessions, vector"
vector 44 Jellyfish_8_8_7_8__jelly_vary_num_switches_seed5.source_044.app[0] numActiveSessions:vector ETV
attr interpolationmode sample-hold
attr source sum(connect)
attr title "number of active sessions, vector"
vector 45 Jellyfish_8_8_7_8__jelly_vary_num_switches_seed5.source_045.app[0] numActiveSessions:vector ETV
attr interpolationmode sample-hold
attr source sum(connect)
attr title "number of active sessions, vector"
vector 46 Jellyfish_8_8_7_8__jelly_vary_num_switches_seed5.source_046.app[0] numActiveSessions:vector ETV
attr interpolationmode sample-hold
attr source sum(connect)
attr title "number of active sessions, vector"
vector 47 Jellyfish_8_8_7_8__jelly_vary_num_switches_seed5.source_047.app[0] numActiveSessions:vector ETV
attr interpolationmode sample-hold
attr source sum(connect)
attr title "number of active sessions, vector"
vector 48 Jellyfish_8_8_7_8__jelly_vary_num_switches_seed5.source_048.app[0] numActiveSessions:vector ETV
attr interpolationmode sample-hold
attr source sum(connect)
attr title "number of active sessions, vector"
vector 49 Jellyfish_8_8_7_8__jelly_vary_num_switches_seed5.source_049.app[0] numActiveSessions:vector ETV
attr interpolationmode sample-hold
attr source sum(connect)
attr title "number of active sessions, vector"
vector 50 Jellyfish_8_8_7_8__jelly_vary_num_switches_seed5.source_050.app[0] numActiveSessions:vector ETV
attr interpolationmode sample-hold
attr source sum(connect)
attr title "number of active sessions, vector"
vector 51 Jellyfish_8_8_7_8__jelly_vary_num_switches_seed5.source_051.app[0] numActiveSessions:vector ETV
attr interpolationmode sample-hold
attr source sum(connect)
attr title "number of active sessions, vector"
vector 52 Jellyfish_8_8_7_8__jelly_vary_num_switches_seed5.source_052.app[0] numActiveSessions:vector ETV
attr interpolationmode sample-hold
attr source sum(connect)
attr title "number of active sessions, vector"
vector 53 Jellyfish_8_8_7_8__jelly_vary_num_switches_seed5.source_053.app[0] numActiveSessions:vector ETV
attr interpolationmode sample-hold
attr source sum(connect)
attr title "number of active sessions, vector"
vector 54 Jellyfish_8_8_7_8__jelly_vary_num_switches_seed5.sink_000.app[0] endToEndDelay:vector ETV
attr interpolationmode none
attr source dataAge(packetReceived)
attr title "end-to-end delay, vector"
attr unit s
vector 55 Jellyfish_8_8_7_8__jelly_vary_num_switches_seed5.source_000.app[0] endToEndDelay:vector ETV
attr interpolationmode none
attr source dataAge(packetReceived)
attr title "end-to-end delay, vector"
attr unit s
vector 56 Jellyfish_8_8_7_8__jelly_vary_num_switches_seed5.sink_002.app[0] endToEndDelay:vector ETV
attr interpolationmode none
attr source dataAge(packetReceived)
attr title "end-to-end delay, vector"
attr unit s
vector 57 Jellyfish_8_8_7_8__jelly_vary_num_switches_seed5.sink_006.app[0] endToEndDelay:vector ETV
attr interpolationmode none
attr source dataAge(packetReceived)
attr title "end-to-end delay, vector"
attr unit s
vector 58 Jellyfish_8_8_7_8__jelly_vary_num_switches_seed5.sink_017.app[0] endToEndDelay:vector ETV
attr interpolationmode none
attr source dataAge(packetReceived)
attr title "end-to-end delay, vector"
attr unit s
vector 59 Jellyfish_8_8_7_8__jelly_vary_num_switches_seed5.sink_044.app[0] endToEndDelay:vector ETV
attr interpolationmode none
attr source dataAge(packetReceived)
attr title "end-to-end delay, vector"
attr unit s
vector 60 Jellyfish_8_8_7_8__jelly_vary_num_switches_seed5.source_017.app[0] endToEndDelay:vector ETV
attr interpolationmode none
attr source dataAge(packetReceived)
attr title "end-to-end delay, vector"
attr unit s
vector 61 Jellyfish_8_8_7_8__jelly_vary_num_switches_seed5.source_044.app[0] endToEndDelay:vector ETV
attr interpolationmode none
attr source dataAge(packetReceived)
attr title "end-to-end delay, vector"
attr unit s
vector 62 Jellyfish_8_8_7_8__jelly_vary_num_switches_seed5.source_002.app[0] endToEndDelay:vector ETV
attr interpolationmode none
attr source dataAge(packetReceived)
attr title "end-to-end delay, vector"
attr unit s
vector 63 Jellyfish_8_8_7_8__jelly_vary_num_switches_seed5.source_006.app[0] endToEndDelay:vector ETV
attr interpolationmode none
attr source dataAge(packetReceived)
attr title "end-to-end delay, vector"
attr unit s
vector 64 Jellyfish_8_8_7_8__jelly_vary_num_switches_seed5.sink_003.app[0] endToEndDelay:vector ETV
attr interpolationmode none
attr source dataAge(packetReceived)
attr title "end-to-end delay, vector"
attr unit s
vector 65 Jellyfish_8_8_7_8__jelly_vary_num_switches_seed5.sink_020.app[0] endToEndDelay:vector ETV
attr interpolationmode none
attr source dataAge(packetReceived)
attr title "end-to-end delay, vector"
attr unit s
vector 66 Jellyfish_8_8_7_8__jelly_vary_num_switches_seed5.sink_047.app[0] endToEndDelay:vector ETV
attr interpolationmode none
attr source dataAge(packetReceived)
attr title "end-to-end delay, vector"
attr unit s
vector 67 Jellyfish_8_8_7_8__jelly_vary_num_switches_seed5.source_003.app[0] endToEndDelay:vector ETV
attr interpolationmode none
attr source dataAge(packetReceived)
attr title "end-to-end delay, vector"
attr unit s
vector 68 Jellyfish_8_8_7_8__jelly_vary_num_switches_seed5.source_047.app[0] endToEndDelay:vector ETV
attr interpolationmode none
attr source dataAge(packetReceived)
attr title "end-to-end delay, vector"
attr unit s
vector 69 Jellyfish_8_8_7_8__jelly_vary_num_switches_seed5.source_020.app[0] endToEndDelay:vector ETV
attr interpolationmode none
attr source dataAge(packetReceived)
attr title "end-to-end delay, vector"
attr unit s
vector 70 Jellyfish_8_8_7_8__jelly_vary_num_switches_seed5.sink_001.app[0] endToEndDelay:vector ETV
attr interpolationmode none
attr source dataAge(packetReceived)
attr title "end-to-end delay, vector"
attr unit s
vector 71 Jellyfish_8_8_7_8__jelly_vary_num_switches_seed5.sink_004.app[0] endToEndDelay:vector ETV
attr interpolationmode none
attr source dataAge(packetReceived)
attr title "end-to-end delay, vector"
attr unit s
vector 72 Jellyfish_8_8_7_8__jelly_vary_num_switches_seed5.sink_016.app[0] endToEndDelay:vector ETV
attr interpolationmode none
attr source dataAge(packetReceived)
attr title "end-to-end delay, vector"
attr unit s
vector 73 Jellyfish_8_8_7_8__jelly_vary_num_switches_seed5.sink_042.app[0] endToEndDelay:vector ETV
attr interpolationmode none
attr source dataAge(packetReceived)
attr title "end-to-end delay, vector"
attr unit s
vector 74 Jellyfish_8_8_7_8__jelly_vary_num_switches_seed5.source_001.app[0] endToEndDelay:vector ETV
attr interpolationmode none
attr source dataAge(packetReceived)
attr title "end-to-end delay, vector"
attr unit s
vector 75 Jellyfish_8_8_7_8__jelly_vary_num_switches_seed5.source_016.app[0] endToEndDelay:vector ETV
attr interpolationmode none
attr source dataAge(packetReceived)
attr title "end-to-end delay, vector"
attr unit s
vector 76 Jellyfish_8_8_7_8__jelly_vary_num_switches_seed5.source_042.app[0] endToEndDelay:vector ETV
attr interpolationmode none
attr source dataAge(packetReceived)
attr title "end-to-end delay, vector"
attr unit s
vector 77 Jellyfish_8_8_7_8__jelly_vary_num_switches_seed5.sink_009.app[0] endToEndDelay:vector ETV
attr interpolationmode none
attr source dataAge(packetReceived)
attr title "end-to-end delay, vector"
attr unit s
vector 78 Jellyfish_8_8_7_8__jelly_vary_num_switches_seed5.sink_018.app[0] endToEndDelay:vector ETV
attr interpolationmode none
attr source dataAge(packetReceived)
attr title "end-to-end delay, vector"
attr unit s
vector 79 Jellyfish_8_8_7_8__jelly_vary_num_switches_seed5.sink_043.app[0] endToEndDelay:vector ETV
attr interpolationmode none
attr source dataAge(packetReceived)
attr title "end-to-end delay, vector"
attr unit s
vector 80 Jellyfish_8_8_7_8__jelly_vary_num_switches_seed5.source_004.app[0] endToEndDelay:vector ETV
attr interpolationmode none
attr source dataAge(packetReceived)
attr title "end-to-end delay, vector"
attr unit s
vector 81 Jellyfish_8_8_7_8__jelly_vary_num_switches_seed5.source_009.app[0] endToEndDelay:vector ETV
attr interpolationmode none
attr source dataAge(packetReceived)
attr title "end-to-end delay, vector"
attr unit s
vector 82 Jellyfish_8_8_7_8__jelly_vary_num_switches_seed5.source_043.app[0] endToEndDelay:vector ETV
attr interpolationmode none
attr source dataAge(packetReceived)
attr title "end-to-end delay, vector"
attr unit s
vector 83 Jellyfish_8_8_7_8__jelly_vary_num_switches_seed5.sink_005.app[0] endToEndDelay:vector ETV
attr interpolationmode none
attr source dataAge(packetReceived)
attr title "end-to-end delay, vector"
attr unit s
vector 84 Jellyfish_8_8_7_8__jelly_vary_num_switches_seed5.sink_019.app[0] endToEndDelay:vector ETV
attr interpolationmode none
attr source dataAge(packetReceived)
attr title "end-to-end delay, vector"
attr unit s
vector 85 Jellyfish_8_8_7_8__jelly_vary_num_switches_seed5.sink_046.app[0] endToEndDelay:vector ETV
attr interpolationmode none
attr source dataAge(packetReceived)
attr title "end-to-end delay, vector"
attr unit s
vector 86 Jellyfish_8_8_7_8__jelly_vary_num_switches_seed5.source_018.app[0] endToEndDelay:vector ETV
attr interpolationmode none
attr source dataAge(packetReceived)
attr title "end-to-end delay, vector"
attr unit s
vector 87 Jellyfish_8_8_7_8__jelly_vary_num_switches_seed5.source_005.app[0] endToEndDelay:vector ETV
attr interpolationmode none
attr source dataAge(packetReceived)
attr title "end-to-end delay, vector"
attr unit s
vector 88 Jellyfish_8_8_7_8__jelly_vary_num_switches_seed5.source_046.app[0] endToEndDelay:vector ETV
attr interpolationmode none
attr source dataAge(packetReceived)
attr title "end-to-end delay, vector"
attr unit s
vector 89 Jellyfish_8_8_7_8__jelly_vary_num_switches_seed5.source_019.app[0] endToEndDelay:vector ETV
attr interpolationmode none
attr source dataAge(packetReceived)
attr title "end-to-end delay, vector"
attr unit s
vector 90 Jellyfish_8_8_7_8__jelly_vary_num_switches_seed5.sink_008.app[0] endToEndDelay:vector ETV
attr interpolationmode none
attr source dataAge(packetReceived)
attr title "end-to-end delay, vector"
attr unit s
vector 91 Jellyfish_8_8_7_8__jelly_vary_num_switches_seed5.sink_021.app[0] endToEndDelay:vector ETV
attr interpolationmode none
attr source dataAge(packetReceived)
attr title "end-to-end delay, vector"
attr unit s
vector 92 Jellyfish_8_8_7_8__jelly_vary_num_switches_seed5.sink_045.app[0] endToEndDelay:vector ETV
attr interpolationmode none
attr source dataAge(packetReceived)
attr title "end-to-end delay, vector"
attr unit s
vector 93 Jellyfish_8_8_7_8__jelly_vary_num_switches_seed5.source_008.app[0] endToEndDelay:vector ETV
attr interpolationmode none
attr source dataAge(packetReceived)
attr title "end-to-end delay, vector"
attr unit s
vector 94 Jellyfish_8_8_7_8__jelly_vary_num_switches_seed5.source_021.app[0] endToEndDelay:vector ETV
attr interpolationmode none
attr source dataAge(packetReceived)
attr title "end-to-end delay, vector"
attr unit s
vector 95 Jellyfish_8_8_7_8__jelly_vary_num_switches_seed5.source_045.app[0] endToEndDelay:vector ETV
attr interpolationmode none
attr source dataAge(packetReceived)
attr title "end-to-end delay, vector"
attr unit s
vector 96 Jellyfish_8_8_7_8__jelly_vary_num_switches_seed5.sink_010.app[0] endToEndDelay:vector ETV
attr interpolationmode none
attr source dataAge(packetReceived)
attr title "end-to-end delay, vector"
attr unit s
vector 97 Jellyfish_8_8_7_8__jelly_vary_num_switches_seed5.sink_022.app[0] endToEndDelay:vector ETV
attr interpolationmode none
attr source dataAge(packetReceived)
attr title "end-to-end delay, vector"
attr unit s
vector 98 Jellyfish_8_8_7_8__jelly_vary_num_switches_seed5.sink_049.app[0] endToEndDelay:vector ETV
attr interpolationmode none
attr source dataAge(packetReceived)
attr title "end-to-end delay, vector"
attr unit s
vector 99 Jellyfish_8_8_7_8__jelly_vary_num_switches_seed5.source_049.app[0] endToEndDelay:vector ETV
attr interpolationmode none
attr source dataAge(packetReceived)
attr title "end-to-end delay, vector"
attr unit s
vector 100 Jellyfish_8_8_7_8__jelly_vary_num_switches_seed5.source_022.app[0] endToEndDelay:vector ETV
attr interpolationmode none
attr source dataAge(packetReceived)
attr title "end-to-end delay, vector"
attr unit s
vector 101 Jellyfish_8_8_7_8__jelly_vary_num_switches_seed5.sink_007.app[0] endToEndDelay:vector ETV
attr interpolationmode none
attr source dataAge(packetReceived)
attr title "end-to-end delay, vector"
attr unit s
vector 102 Jellyfish_8_8_7_8__jelly_vary_num_switches_seed5.sink_023.app[0] endToEndDelay:vector ETV
attr interpolationmode none
attr source dataAge(packetReceived)
attr title "end-to-end delay, vector"
attr unit s
vector 103 Jellyfish_8_8_7_8__jelly_vary_num_switches_seed5.sink_050.app[0] endToEndDelay:vector ETV
attr interpolationmode none
attr source dataAge(packetReceived)
attr title "end-to-end delay, vector"
attr unit s
vector 104 Jellyfish_8_8_7_8__jelly_vary_num_switches_seed5.source_010.app[0] endToEndDelay:vector ETV
attr interpolationmode none
attr source dataAge(packetReceived)
attr title "end-to-end delay, vector"
attr unit s
vector 105 Jellyfish_8_8_7_8__jelly_vary_num_switches_seed5.source_007.app[0] endToEndDelay:vector ETV
attr interpolationmode none
attr source dataAge(packetReceived)
attr title "end-to-end delay, vector"
attr unit s
vector 106 Jellyfish_8_8_7_8__jelly_vary_num_switches_seed5.source_050.app[0] endToEndDelay:vector ETV
attr interpolationmode none
attr source dataAge(packetReceived)
attr title "end-to-end delay, vector"
attr unit s
vector 107 Jellyfish_8_8_7_8__jelly_vary_num_switches_seed5.source_023.app[0] endToEndDelay:vector ETV
attr interpolationmode none
attr source dataAge(packetReceived)
attr title "end-to-end delay, vector"
attr unit s
vector 108 Jellyfish_8_8_7_8__jelly_vary_num_switches_seed5.sink_011.app[0] endToEndDelay:vector ETV
attr interpolationmode none
attr source dataAge(packetReceived)
attr title "end-to-end delay, vector"
attr unit s
vector 109 Jellyfish_8_8_7_8__jelly_vary_num_switches_seed5.sink_024.app[0] endToEndDelay:vector ETV
attr interpolationmode none
attr source dataAge(packetReceived)
attr title "end-to-end delay, vector"
attr unit s
vector 110 Jellyfish_8_8_7_8__jelly_vary_num_switches_seed5.sink_053.app[0] endToEndDelay:vector ETV
attr interpolationmode none
attr source dataAge(packetReceived)
attr title "end-to-end delay, vector"
attr unit s
vector 111 Jellyfish_8_8_7_8__jelly_vary_num_switches_seed5.source_053.app[0] endToEndDelay:vector ETV
attr interpolationmode none
attr source dataAge(packetReceived)
attr title "end-to-end delay, vector"
attr unit s
vector 112 Jellyfish_8_8_7_8__jelly_vary_num_switches_seed5.source_011.app[0] endToEndDelay:vector ETV
attr interpolationmode none
attr source dataAge(packetReceived)
attr title "end-to-end delay, vector"
attr unit s
vector 113 Jellyfish_8_8_7_8__jelly_vary_num_switches_seed5.source_024.app[0] endToEndDelay:vector ETV
attr interpolationmode none
attr source dataAge(packetReceived)
attr title "end-to-end delay, vector"
attr unit s
vector 114 Jellyfish_8_8_7_8__jelly_vary_num_switches_seed5.sink_014.app[0] endToEndDelay:vector ETV
attr interpolationmode none
attr source dataAge(packetReceived)
attr title "end-to-end delay, vector"
attr unit s
vector 115 Jellyfish_8_8_7_8__jelly_vary_num_switches_seed5.sink_027.app[0] endToEndDelay:vector ETV
attr interpolationmode none
attr source dataAge(packetReceived)
attr title "end-to-end delay, vector"
attr unit s
vector 116 Jellyfish_8_8_7_8__jelly_vary_num_switches_seed5.sink_048.app[0] endToEndDelay:vector ETV
attr interpolationmode none
attr source dataAge(packetReceived)
attr title "end-to-end delay, vector"
attr unit s
vector 117 Jellyfish_8_8_7_8__jelly_vary_num_switches_seed5.source_027.app[0] endToEndDelay:vector ETV
attr interpolationmode none
attr source dataAge(packetReceived)
attr title "end-to-end delay, vector"
attr unit s
vector 118 Jellyfish_8_8_7_8__jelly_vary_num_switches_seed5.source_014.app[0] endToEndDelay:vector ETV
attr interpolationmode none
attr source dataAge(packetReceived)
attr title "end-to-end delay, vector"
attr unit s
vector 119 Jellyfish_8_8_7_8__jelly_vary_num_switches_seed5.source_048.app[0] endToEndDelay:vector ETV
attr interpolationmode none
attr source dataAge(packetReceived)
attr title "end-to-end delay, vector"
attr unit s
vector 120 Jellyfish_8_8_7_8__jelly_vary_num_switches_seed5.sink_013.app[0] endToEndDelay:vector ETV
attr interpolationmode none
attr source dataAge(packetReceived)
attr title "end-to-end delay, vector"
attr unit s
vector 121 Jellyfish_8_8_7_8__jelly_vary_num_switches_seed5.sink_025.app[0] endToEndDelay:vector ETV
attr interpolationmode none
attr source dataAge(packetReceived)
attr title "end-to-end delay, vector"
attr unit s
vector 122 Jellyfish_8_8_7_8__jelly_vary_num_switches_seed5.sink_052.app[0] endToEndDelay:vector ETV
attr interpolationmode none
attr source dataAge(packetReceived)
attr title "end-to-end delay, vector"
attr unit s
vector 123 Jellyfish_8_8_7_8__jelly_vary_num_switches_seed5.source_013.app[0] endToEndDelay:vector ETV
attr interpolationmode none
attr source dataAge(packetReceived)
attr title "end-to-end delay, vector"
attr unit s
vector 124 Jellyfish_8_8_7_8__jelly_vary_num_switches_seed5.source_052.app[0] endToEndDelay:vector ETV
attr interpolationmode none
attr source dataAge(packetReceived)
attr title "end-to-end delay, vector"
attr unit s
vector 125 Jellyfish_8_8_7_8__jelly_vary_num_switches_seed5.source_025.app[0] endToEndDelay:vector ETV
attr interpolationmode none
attr source dataAge(packetReceived)
attr title "end-to-end delay, vector"
attr unit s
vector 126 Jellyfish_8_8_7_8__jelly_vary_num_switches_seed5.sink_026.app[0] endToEndDelay:vector ETV
attr interpolationmode none
attr source dataAge(packetReceived)
attr title "end-to-end delay, vector"
attr unit s
vector 127 Jellyfish_8_8_7_8__jelly_vary_num_switches_seed5.sink_012.app[0] endToEndDelay:vector ETV
attr interpolationmode none
attr source dataAge(packetReceived)
attr title "end-to-end delay, vector"
attr unit s
vector 128 Jellyfish_8_8_7_8__jelly_vary_num_switches_seed5.sink_051.app[0] endToEndDelay:vector ETV
attr interpolationmode none
attr source dataAge(packetReceived)
attr title "end-to-end delay, vector"
attr unit s
vector 129 Jellyfish_8_8_7_8__jelly_vary_num_switches_seed5.source_026.app[0] endToEndDelay:vector ETV
attr interpolationmode none
attr source dataAge(packetReceived)
attr title "end-to-end delay, vector"
attr unit s
vector 130 Jellyfish_8_8_7_8__jelly_vary_num_switches_seed5.source_012.app[0] endToEndDelay:vector ETV
attr interpolationmode none
attr source dataAge(packetReceived)
attr title "end-to-end delay, vector"
attr unit s
vector 131 Jellyfish_8_8_7_8__jelly_vary_num_switches_seed5.source_051.app[0] endToEndDelay:vector ETV
attr interpolationmode none
attr source dataAge(packetReceived)
attr title "end-to-end delay, vector"
attr unit s
vector 132 Jellyfish_8_8_7_8__jelly_vary_num_switches_seed5.sink_015.app[0] endToEndDelay:vector ETV
attr interpolationmode none
attr source dataAge(packetReceived)
attr title "end-to-end delay, vector"
attr unit s
vector 133 Jellyfish_8_8_7_8__jelly_vary_num_switches_seed5.sink_030.app[0] endToEndDelay:vector ETV
attr interpolationmode none
attr source dataAge(packetReceived)
attr title "end-to-end delay, vector"
attr unit s
vector 134 Jellyfish_8_8_7_8__jelly_vary_num_switches_seed5.source_030.app[0] endToEndDelay:vector ETV
attr interpolationmode none
attr source dataAge(packetReceived)
attr title "end-to-end delay, vector"
attr unit s
vector 135 Jellyfish_8_8_7_8__jelly_vary_num_switches_seed5.source_015.app[0] endToEndDelay:vector ETV
attr interpolationmode none
attr source dataAge(packetReceived)
attr title "end-to-end delay, vector"
attr unit s
vector 136 Jellyfish_8_8_7_8__jelly_vary_num_switches_seed5.sink_028.app[0] endToEndDelay:vector ETV
attr interpolationmode none
attr source dataAge(packetReceived)
attr title "end-to-end delay, vector"
attr unit s
vector 137 Jellyfish_8_8_7_8__jelly_vary_num_switches_seed5.source_028.app[0] endToEndDelay:vector ETV
attr interpolationmode none
attr source dataAge(packetReceived)
attr title "end-to-end delay, vector"
attr unit s
vector 138 Jellyfish_8_8_7_8__jelly_vary_num_switches_seed5.sink_029.app[0] endToEndDelay:vector ETV
attr interpolationmode none
attr source dataAge(packetReceived)
attr title "end-to-end delay, vector"
attr unit s
vector 139 Jellyfish_8_8_7_8__jelly_vary_num_switches_seed5.source_029.app[0] endToEndDelay:vector ETV
attr interpolationmode none
attr source dataAge(packetReceived)
attr title "end-to-end delay, vector"
attr unit s
vector 140 Jellyfish_8_8_7_8__jelly_vary_num_switches_seed5.sink_032.app[0] endToEndDelay:vector ETV
attr interpolationmode none
attr source dataAge(packetReceived)
attr title "end-to-end delay, vector"
attr unit s
vector 141 Jellyfish_8_8_7_8__jelly_vary_num_switches_seed5.source_032.app[0] endToEndDelay:vector ETV
attr interpolationmode none
attr source dataAge(packetReceived)
attr title "end-to-end delay, vector"
attr unit s
vector 142 Jellyfish_8_8_7_8__jelly_vary_num_switches_seed5.sink_033.app[0] endToEndDelay:vector ETV
attr interpolationmode none
attr source dataAge(packetReceived)
attr title "end-to-end delay, vector"
attr unit s
vector 143 Jellyfish_8_8_7_8__jelly_vary_num_switches_seed5.source_033.app[0] endToEndDelay:vector ETV
attr interpolationmode none
attr source dataAge(packetReceived)
attr title "end-to-end delay, vector"
attr unit s
vector 144 Jellyfish_8_8_7_8__jelly_vary_num_switches_seed5.sink_031.app[0] endToEndDelay:vector ETV
attr interpolationmode none
attr source dataAge(packetReceived)
attr title "end-to-end delay, vector"
attr unit s
vector 145 Jellyfish_8_8_7_8__jelly_vary_num_switches_seed5.source_031.app[0] endToEndDelay:vector ETV
attr interpolationmode none
attr source dataAge(packetReceived)
attr title "end-to-end delay, vector"
attr unit s
vector 146 Jellyfish_8_8_7_8__jelly_vary_num_switches_seed5.sink_034.app[0] endToEndDelay:vector ETV
attr interpolationmode none
attr source dataAge(packetReceived)
attr title "end-to-end delay, vector"
attr unit s
vector 147 Jellyfish_8_8_7_8__jelly_vary_num_switches_seed5.source_034.app[0] endToEndDelay:vector ETV
attr interpolationmode none
attr source dataAge(packetReceived)
attr title "end-to-end delay, vector"
attr unit s
vector 148 Jellyfish_8_8_7_8__jelly_vary_num_switches_seed5.sink_038.app[0] endToEndDelay:vector ETV
attr interpolationmode none
attr source dataAge(packetReceived)
attr title "end-to-end delay, vector"
attr unit s
vector 149 Jellyfish_8_8_7_8__jelly_vary_num_switches_seed5.source_038.app[0] endToEndDelay:vector ETV
attr interpolationmode none
attr source dataAge(packetReceived)
attr title "end-to-end delay, vector"
attr unit s
vector 150 Jellyfish_8_8_7_8__jelly_vary_num_switches_seed5.sink_035.app[0] endToEndDelay:vector ETV
attr interpolationmode none
attr source dataAge(packetReceived)
attr title "end-to-end delay, vector"
attr unit s
vector 151 Jellyfish_8_8_7_8__jelly_vary_num_switches_seed5.source_035.app[0] endToEndDelay:vector ETV
attr interpolationmode none
attr source dataAge(packetReceived)
attr title "end-to-end delay, vector"
attr unit s
vector 152 Jellyfish_8_8_7_8__jelly_vary_num_switches_seed5.sink_036.app[0] endToEndDelay:vector ETV
attr interpolationmode none
attr source dataAge(packetReceived)
attr title "end-to-end delay, vector"
attr unit s
vector 153 Jellyfish_8_8_7_8__jelly_vary_num_switches_seed5.source_036.app[0] endToEndDelay:vector ETV
attr interpolationmode none
attr source dataAge(packetReceived)
attr title "end-to-end delay, vector"
attr unit s
vector 154 Jellyfish_8_8_7_8__jelly_vary_num_switches_seed5.sink_037.app[0] endToEndDelay:vector ETV
attr interpolationmode none
attr source dataAge(packetReceived)
attr title "end-to-end delay, vector"
attr unit s
vector 155 Jellyfish_8_8_7_8__jelly_vary_num_switches_seed5.source_037.app[0] endToEndDelay:vector ETV
attr interpolationmode none
attr source dataAge(packetReceived)
attr title "end-to-end delay, vector"
attr unit s
vector 156 Jellyfish_8_8_7_8__jelly_vary_num_switches_seed5.sink_039.app[0] endToEndDelay:vector ETV
attr interpolationmode none
attr source dataAge(packetReceived)
attr title "end-to-end delay, vector"
attr unit s
vector 157 Jellyfish_8_8_7_8__jelly_vary_num_switches_seed5.source_039.app[0] endToEndDelay:vector ETV
attr interpolationmode none
attr source dataAge(packetReceived)
attr title "end-to-end delay, vector"
attr unit s
vector 158 Jellyfish_8_8_7_8__jelly_vary_num_switches_seed5.sink_040.app[0] endToEndDelay:vector ETV
attr interpolationmode none
attr source dataAge(packetReceived)
attr title "end-to-end delay, vector"
attr unit s
vector 159 Jellyfish_8_8_7_8__jelly_vary_num_switches_seed5.source_040.app[0] endToEndDelay:vector ETV
attr interpolationmode none
attr source dataAge(packetReceived)
attr title "end-to-end delay, vector"
attr unit s
vector 160 Jellyfish_8_8_7_8__jelly_vary_num_switches_seed5.sink_041.app[0] endToEndDelay:vector ETV
attr interpolationmode none
attr source dataAge(packetReceived)
attr title "end-to-end delay, vector"
attr unit s
vector 161 Jellyfish_8_8_7_8__jelly_vary_num_switches_seed5.source_041.app[0] endToEndDelay:vector ETV
attr interpolationmode none
attr source dataAge(packetReceived)
attr title "end-to-end delay, vector"
attr unit s
0	55	0	1
0	49829	0.152013	0
1	56	0	1
1	14558	0.039475	0
2	57	0	1
2	385571	5.009841	0
3	58	0	1
3	25600	0.07395	0
4	59	0	1
4	40771	0.121432	0
5	60	0	1
5	340724	2.476047	0
6	61	0	1
6	5105	0.009517	0
7	62	0	1
7	13453	0.03615	0
8	63	0	1
8	46777	0.141171	0
9	64	0	1
9	20306	0.057248	0
10	65	0	1
10	25154	0.07277	0
11	66	0	1
11	23857	0.068588	0
12	67	0	1
12	89890	0.306762	0
13	68	0	1
13	14889	0.040259	0
14	69	0	1
14	190753	0.796692	0
15	70	0	1
15	340034	2.466478	0
16	71	0	1
16	128864	0.47669	0
17	72	0	1
17	5039	0.00945	0
18	73	0	1
18	18032	0.04977	0
19	74	0	1
19	18135	0.050141	0
20	75	0	1
20	27727	0.079556	0
21	76	0	1
21	196329	0.829136	0
22	77	0	1
22	140015	0.528462	0
23	78	0	1
23	72395	0.237235	0
24	79	0	1
24	39602	0.117617	0
25	80	0	1
25	68134	0.221572	0
26	81	0	1
26	62070	0.198986	0
27	82	0	1
27	153247	0.593665	0
28	83	0	1
28	22040	0.062687	0
29	84	0	1
29	68548	0.223	0
30	85	0	1
30	62338	0.200213	0
31	86	0	1
31	63748	0.205909	0
32	87	0	1
32	89674	0.305985	0
33	88	0	1
33	87060	0.294833	0
34	89	0	1
34	282931	1.568133	0
35	90	0	1
35	64531	0.20865	0
36	91	0	1
36	341696	2.500356	0
37	92	0	1
37	44742	0.134439	0
38	93	0	1
38	33886	0.09926	0
39	94	0	1
39	78321	0.259962	0
40	95	0	1
40	99987	0.349648	0
41	96	0	1
41	59597	0.189181	0
42	97	0	1
42	268822	1.397467	0
43	98	0	1
43	226321	1.025183	0
44	99	0	1
44	82897	0.277999	0
45	100	0	1
45	23465	0.067108	0
46	101	0	1
46	36065	0.106161	0
47	102	0	1
47	271662	1.425475	0
48	103	0	1
48	55139	0.172081	0
49	104	0	1
49	13014	0.034644	0
50	105	0	1
50	19038	0.052907	0
51	106	0	1
51	230732	1.055098	0
52	107	0	1
52	36814	0.10901	0
53	108	0	1
53	233570	1.077717	0
54	4524	0.007202	0.005835
54	6371	0.013919	0.005835
54	8692	0.020948	0.006147
54	10778	0.027712	0.005882
54	12932	0.034429	0.005835
54	15121	0.041146	0.005835
54	17389	0.047897	0.005835
54	19518	0.054614	0.005835
54	21561	0.061331	0.005835
54	24088	0.06938	0.005835
54	26324	0.076097	0.005835
54	28787	0.082814	0.005835
54	30952	0.089531	0.005835
54	32935	0.096248	0.005835
54	34907	0.102965	0.005835
54	37019	0.109682	0.005835
54	39145	0.116399	0.005835
54	41704	0.124263	0.005835
54	43678	0.13098	0.005835
54	45554	0.137697	0.005835
54	47727	0.144414	0.005835
54	49526	0.151131	0.005835
55	4619	0.008084	0.000882
55	6763	0.014801	0.000882
55	9000	0.02183	0.000882
55	11102	0.028594	0.000882
55	13223	0.035311	0.000882
55	15431	0.042062	0.000916
55	17643	0.048779	0.000882
55	19813	0.055496	0.000882
55	22381	0.063545	0.002214
55	24401	0.070262	0.000882
55	26640	0.076979	0.000882
55	29106	0.083696	0.000882
55	31237	0.090413	0.000882
55	33207	0.09713	0.000882
55	35172	0.103847	0.000882
55	37333	0.110564	0.000882
55	39917	0.118428	0.002029
55	41980	0.125145	0.000882
55	43917	0.131862	0.000882
55	45873	0.138579	0.000882
55	47988	0.145296	0.000882
55	49829	0.152013	0.000882
56	4720	0.008596	0.007135
56	6918	0.015313	0.005835
56	9146	0.022295	0.0061
56	11719	0.030406	0.007229
56	13761	0.037246	0.005958
56	16104	0.043997	0.005869
56	18305	0.050714	0.005835
56	20345	0.057431	0.005835
56	22535	0.064148	0.005835
56	24587	0.070865	0.005835
56	26932	0.077582	0.005835
56	29260	0.084299	0.005835
56	31430	0.091016	0.005835
56	33357	0.097733	0.005835
56	35467	0.10445	0.005835
56	37539	0.111167	0.005835
56	39652	0.117884	0.005835
56	42209	0.125657	0.006891
56	44116	0.132374	0.005835
56	46047	0.139091	0.005835
56	48105	0.145808	0.005835
56	49990	0.152525	0.005835
56	51902	0.159285	0.005835
56	53600	0.166002	0.005835
56	55319	0.172719	0.005835
56	56979	0.179436	0.005835
56	58804	0.186153	0.005835
56	60503	0.19287	0.005835
56	62199	0.199587	0.005835
56	63860	0.206304	0.005835
56	65655	0.213021	0.005835
56	67541	0.219738	0.005835
56	69392	0.226455	0.005835
56	71250	0.233172	0.005835
56	73108	0.239889	0.005835
56	74825	0.246606	0.005835
56	76567	0.253323	0.005835
56	78342	0.26004	0.005835
56	80040	0.266757	0.005835
56	81766	0.273474	0.005835
56	83417	0.280191	0.005835
56	85175	0.286908	0.005835
56	86738	0.293625	0.005835
56	88352	0.300342	0.005835
56	90007	0.307059	0.005835
56	91810	0.313776	0.005835
56	93394	0.320493	0.005835
56	94955	0.32721	0.005835
56	96392	0.333927	0.005835
56	97880	0.340644	0.005835
56	99419	0.347361	0.005835
56	101043	0.354078	0.005835
56	102628	0.360795	0.005835
56	104096	0.367512	0.005835
56	105565	0.374229	0.005835
56	107170	0.380946	0.005835
56	108709	0.387663	0.005835
56	110218	0.39438	0.005835
56	111669	0.401097	0.005835
56	113250	0.407814	0.005835
56	114783	0.414531	0.005835
56	116307	0.421248	0.005835
56	117818	0.427965	0.005835
56	119326	0.434682	0.005835
56	120845	0.441399	0.005835
56	122397	0.448116	0.005835
56	123913	0.454833	0.005835
56	125466	0.46155	0.005835
56	126909	0.468267	0.005835
56	128459	0.474984	0.005835
56	130081	0.481701	0.005835
56	131585	0.488418	0.005835
56	132933	0.495135	0.005835
56	134331	0.501852	0.005835
56	135835	0.508569	0.005835
56	137337	0.515286	0.005835
56	138709	0.522003	0.005835
56	140066	0.52872	0.005835
56	141571	0.535437	0.005835
56	142984	0.542154	0.005835
56	144373	0.548871	0.005835
56	145636	0.555588	0.005835
56	146890	0.562305	0.005835
56	148267	0.569022	0.005835
56	149644	0.575739	0.005835
56	151012	0.582456	0.005835
56	152280	0.589173	0.005835
56	153590	0.59589	0.005835
56	154953	0.602607	0.005835
56	156270	0.609324	0.005835
56	157482	0.616041	0.005835
56	158704	0.622758	0.005835
56	159872	0.629475	0.005835
56	161104	0.636192	0.005835
56	162449	0.642909	0.005835
56	163679	0.649626	0.005835
56	164834	0.656343	0.005835
56	166076	0.66306	0.005835
56	167348	0.669777	0.005835
56	168581	0.676494	0.005835
56	169799	0.683211	0.005835
56	171005	0.689928	0.005835
56	172317	0.696645	0.005835
56	173531	0.703362	0.005835
56	174738	0.710079	0.005835
56	175919	0.716796	0.005835
[...]
147	251641	1.241573	0.000882
147	252561	1.249737	0.000882
147	253490	1.257901	0.000882
147	254349	1.266065	0.000882
147	255208	1.274229	0.000882
147	256155	1.282393	0.000882
147	257057	1.290557	0.000882
147	257970	1.298721	0.000882
147	258829	1.306885	0.000882
147	259719	1.315049	0.000882
147	260640	1.323213	0.000882
147	261572	1.331377	0.000882
147	262436	1.339541	0.000882
147	263291	1.347705	0.000882
147	264232	1.355869	0.000882
147	265110	1.364033	0.000882
147	265988	1.372197	0.000882
147	266842	1.380361	0.000882
147	267719	1.388525	0.000882
147	268657	1.396689	0.000882
147	269594	1.404853	0.000882
147	270421	1.413017	0.000882
147	271155	1.421181	0.000882
147	272022	1.429345	0.000882
147	272700	1.437509	0.000882
147	273321	1.445673	0.000882
147	273942	1.453837	0.000882
147	274563	1.462001	0.000882
147	275269	1.470165	0.000882
147	275906	1.478329	0.000882
147	276527	1.486493	0.000882
147	277148	1.494657	0.000882
147	277789	1.502821	0.000882
147	278487	1.510985	0.000882
147	279108	1.519149	0.000882
147	279729	1.527313	0.000882
147	280350	1.535477	0.000882
147	281019	1.543641	0.000882
147	281689	1.551805	0.000882
147	282310	1.559969	0.000882
147	282931	1.568133	0.000882
148	13154	0.035225	0.03265
148	23898	0.068728	0.032621
148	33580	0.098378	0.028768
149	13431	0.036107	0.000882
149	24158	0.06961	0.000882
149	33886	0.09926	0.000882
150	13549	0.036572	0.034048
150	24791	0.071563	0.034109
150	34756	0.102513	0.030068
150	43574	0.130769	0.027374
150	51429	0.157443	0.025792
150	57983	0.182676	0.024351
150	64305	0.207768	0.02421
151	13839	0.037454	0.000882
151	25075	0.072445	0.000882
151	35066	0.103395	0.000882
151	43857	0.131651	0.000882
151	51612	0.158325	0.000882
151	58137	0.183558	0.000882
151	64531	0.20865	0.000882
152	13996	0.037966	0.03534
152	25210	0.072957	0.034109
152	35224	0.103907	0.030068
152	44022	0.132163	0.027374
152	51762	0.158837	0.025792
152	58276	0.18407	0.024351
152	64676	0.209209	0.024257
152	69799	0.227801	0.01771
152	74009	0.243558	0.014875
152	77753	0.257686	0.013246
152	81175	0.271673	0.013105
152	84551	0.284313	0.011724
152	87497	0.296906	0.011711
152	90422	0.308152	0.010364
152	92871	0.318098	0.009064
152	95123	0.327856	0.008876
152	97270	0.337614	0.008876
152	99440	0.347372	0.008876
152	101711	0.35713	0.008876
152	103665	0.365588	0.007576
152	105508	0.373999	0.007529
152	107533	0.382363	0.007482
152	109485	0.390727	0.007482
152	111316	0.399091	0.007482
152	113173	0.407455	0.007482
152	115152	0.415819	0.007482
152	117055	0.424183	0.007482
152	118898	0.432547	0.007482
152	120740	0.440911	0.007482
152	122709	0.449275	0.007482
152	124629	0.457639	0.007482
152	126505	0.466003	0.007482
152	128333	0.474367	0.007482
152	130346	0.482778	0.007529
152	132191	0.491036	0.007376
152	133964	0.4992	0.007282
152	135663	0.507364	0.007282
152	137407	0.515528	0.007282
152	139172	0.523692	0.007282
152	141062	0.53195	0.007376
152	142649	0.540114	0.007282
152	144223	0.548278	0.007282
152	145874	0.556442	0.007282
152	147488	0.564606	0.007282
152	149072	0.57277	0.007282
152	150669	0.580934	0.007282
152	152250	0.589098	0.007282
152	154057	0.597262	0.007282
152	155527	0.605426	0.007282
152	156977	0.61359	0.007282
152	158451	0.621754	0.007282
152	159958	0.629918	0.007282
152	161481	0.638082	0.007282
152	162952	0.646246	0.007282
152	164478	0.65441	0.007282
152	165957	0.662574	0.007282
152	167500	0.670738	0.007282
152	169058	0.678902	0.007282
152	170541	0.687066	0.007282
152	172063	0.69523	0.007282
152	173552	0.703394	0.007282
152	175091	0.711558	0.007282
152	176537	0.719722	0.007282
152	178024	0.727886	0.007282
152	179580	0.73605	0.007282
152	181068	0.744214	0.007282
152	182558	0.752378	0.007282
152	184096	0.760542	0.007282
152	185541	0.768706	0.007282
152	187010	0.77687	0.007282
152	188551	0.785034	0.007282
152	190039	0.793198	0.007282
152	191604	0.801362	0.007282
152	192936	0.809526	0.007282
152	194310	0.81769	0.007282
152	195730	0.825854	0.007282
152	197065	0.834018	0.007282
152	198422	0.842182	0.007282
152	199680	0.850346	0.007282
152	200934	0.85851	0.007282
152	202193	0.866674	0.007282
152	203414	0.874838	0.007282
152	204636	0.883002	0.007282
152	205865	0.891166	0.007282
152	207181	0.89933	0.007282
152	208410	0.907494	0.007282
152	209603	0.915658	0.007282
152	210829	0.923822	0.007282
152	212147	0.931986	0.007282
152	213424	0.94015	0.007282
152	214643	0.948314	0.007282
152	215856	0.956478	0.007282
152	217078	0.964642	0.007282
152	218338	0.972806	0.007282
152	219602	0.98097	0.007282
152	220814	0.989134	0.007282
152	222044	0.997298	0.007282
152	223260	1.005462	0.007282
152	224634	1.013626	0.007282
152	225858	1.02179	0.007282
152	227145	1.029954	0.007282
152	228250	1.038118	0.007282
152	229408	1.046282	0.007282
152	230571	1.054446	0.007282
152	231738	1.06261	0.007282
152	232737	1.070774	0.007282
152	233822	1.078938	0.007282
152	234833	1.087102	0.007282
152	235773	1.095266	0.007282
152	236628	1.10343	0.007282
152	237483	1.111594	0.007282
152	238342	1.119758	0.007282
152	239372	1.127922	0.007282
152	240249	1.136086	0.007282
152	241104	1.14425	0.007282
152	241963	1.152414	0.007282
152	242853	1.160578	0.007282
152	243809	1.168742	0.007282
152	244653	1.176906	0.007282
152	245512	1.18507	0.007282
152	246371	1.193234	0.007282
152	247312	1.201398	0.007282
152	248189	1.209562	0.007282
152	249102	1.217726	0.007282
152	249962	1.22589	0.007282
152	250843	1.234054	0.007282
152	251776	1.242218	0.007282
152	252704	1.250382	0.007282
152	253583	1.258546	0.007282
152	254442	1.26671	0.007282
152	255340	1.274874	0.007282
152	256249	1.283038	0.007282
152	257189	1.291202	0.007282
152	258060	1.299366	0.007282
152	258915	1.30753	0.007282
152	259856	1.315694	0.007282
152	260730	1.323858	0.007282
152	261682	1.332022	0.007282
152	262537	1.340186	0.007282
152	263415	1.34835	0.007282
152	264349	1.356514	0.007282
152	265230	1.364678	0.007282
152	266117	1.372842	0.007282
152	266967	1.381006	0.007282
152	267878	1.38917	0.007282
152	268786	1.397334	0.007282
152	269719	1.405498	0.007282
152	270507	1.413662	0.007282
152	271242	1.421826	0.007282
152	272157	1.42999	0.007282
152	272790	1.438154	0.007282
152	273411	1.446318	0.007282
152	274032	1.454482	0.007282
152	274680	1.462646	0.007282
152	275371	1.47081	0.007282
152	275992	1.478974	0.007282
152	276613	1.487138	0.007282
152	277234	1.495302	0.007282
152	277913	1.503466	0.007282
152	278573	1.51163	0.007282
152	279194	1.519794	0.007282
152	279815	1.527958	0.007282
152	280436	1.536122	0.007282
152	281147	1.544286	0.007282
152	281779	1.55245	0.007282
152	282400	1.560614	0.007282
152	283036	1.568778	0.007282
152	283665	1.576942	0.007282
152	284234	1.585106	0.007282
152	284730	1.59327	0.007282
152	285226	1.601434	0.007282
152	285722	1.609598	0.007282
152	286299	1.617762	0.007282
152	286812	1.625926	0.007282
152	287308	1.63409	0.007282
152	287804	1.642254	0.007282
152	288300	1.650418	0.007282
152	288889	1.658582	0.007282
152	289392	1.666746	0.007282
152	289888	1.67491	0.007282
152	290384	1.683074	0.007282
152	290919	1.691238	0.007282
152	291473	1.699402	0.007282
152	291969	1.707566	0.007282
152	292465	1.71573	0.007282
152	292961	1.723894	0.007282
152	293539	1.732058	0.007282
152	294054	1.740222	0.007282
152	294550	1.748386	0.007282
152	295046	1.75655	0.007282
152	295561	1.764714	0.007282
152	296135	1.772878	0.007282
152	296631	1.781042	0.007282
152	297127	1.789206	0.007282
152	297623	1.79737	0.007282
152	298162	1.805534	0.007282
152	298712	1.813698	0.007282
152	299208	1.821862	0.007282
152	299704	1.830026	0.007282
152	300200	1.83819	0.007282
152	300782	1.846354	0.007282
152	301293	1.854518	0.007282
152	301789	1.862682	0.007282
152	302285	1.870846	0.007282
152	302804	1.87901	0.007282
152	303374	1.887174	0.007282
152	303870	1.895338	0.007282
152	304366	1.903502	0.007282
152	304862	1.911666	0.007282
152	305406	1.91983	0.007282
152	305951	1.927994	0.007282
152	306447	1.936158	0.007282
152	306943	1.944322	0.007282
152	307439	1.952486	0.007282
152	308024	1.96065	0.007282
152	308532	1.968814	0.007282
152	309028	1.976978	0.007282
152	309524	1.985142	0.007282
152	310047	1.993306	0.007282
152	310613	2.00147	0.007282
152	311109	2.009634	0.007282
152	311605	2.017798	0.007282
152	312101	2.025962	0.007282
152	312656	2.034126	0.007282
152	313190	2.04229	0.007282
152	313686	2.050454	0.007282
152	314182	2.058618	0.007282
152	314678	2.066782	0.007282
152	315264	2.074946	0.007282
152	315771	2.08311	0.007282
152	316267	2.091274	0.007282
152	316763	2.099438	0.007282
152	317294	2.107602	0.007282
152	317852	2.115766	0.007282
152	318348	2.12393	0.007282
152	318844	2.132094	0.007282
152	319340	2.140258	0.007282
152	319917	2.148422	0.007282
152	320430	2.156586	0.007282
152	320926	2.16475	0.007282
152	321422	2.172914	0.007282
152	321918	2.181078	0.007282
152	322507	2.189242	0.007282
152	323010	2.197406	0.007282
152	323506	2.20557	0.007282
152	324002	2.213734	0.007282
152	324538	2.221898	0.007282
152	325091	2.230062	0.007282
152	325587	2.238226	0.007282
152	326083	2.24639	0.007282
152	326579	2.254554	0.007282
152	327157	2.262718	0.007282
152	327672	2.270882	0.007282
152	328168	2.279046	0.007282
152	328664	2.28721	0.007282
152	329179	2.295374	0.007282
152	329753	2.303538	0.007282
152	330249	2.311702	0.007282
152	330745	2.319866	0.007282
152	331241	2.32803	0.007282
152	331783	2.336194	0.007282
152	332330	2.344358	0.007282
152	332826	2.352522	0.007282
152	333322	2.360686	0.007282
152	333818	2.36885	0.007282
152	334400	2.377014	0.007282
152	334911	2.385178	0.007282
152	335407	2.393342	0.007282
152	335903	2.401506	0.007282
152	336422	2.40967	0.007282
152	336992	2.417834	0.007282
152	337488	2.425998	0.007282
152	337984	2.434162	0.007282
152	338480	2.442326	0.007282
152	339024	2.45049	0.007282
152	339569	2.458654	0.007282
152	340069	2.466818	0.007282
152	340569	2.474982	0.007282
152	341041	2.483146	0.007282
152	341377	2.49131	0.007282
152	341634	2.499474	0.007282
153	14335	0.038848	0.000882
153	25555	0.073839	0.000882
153	35591	0.104789	0.000882
153	44308	0.133045	0.000882
153	52033	0.159719	0.000882
153	58484	0.184952	0.000882
153	64813	0.210091	0.000882
153	70014	0.228683	0.000882
153	74189	0.24444	0.000882
153	77996	0.258568	0.000882
153	81495	0.272589	0.000916
153	84747	0.285195	0.000882
153	87693	0.297788	0.000882
153	90693	0.309034	0.000882
153	93034	0.31898	0.000882
153	95331	0.328738	0.000882
153	97434	0.338496	0.000882
153	99711	0.348254	0.000882
153	101933	0.358012	0.000882
153	103873	0.36647	0.000882
153	105774	0.374881	0.000882
153	107725	0.383245	0.000882
153	109579	0.391609	0.000882
153	111404	0.399973	0.000882
153	113372	0.408337	0.000882
153	115378	0.416701	0.000882
153	117211	0.425065	0.000882
153	119048	0.433429	0.000882
153	120945	0.441793	0.000882
153	122932	0.450157	0.000882
153	124801	0.458521	0.000882
153	126655	0.466885	0.000882
153	128514	0.475249	0.000882
153	130587	0.48366	0.000882
153	132343	0.491918	0.000882
153	134056	0.500082	0.000882
153	135755	0.508246	0.000882
153	137619	0.51641	0.000882
153	139401	0.524574	0.000882
153	141223	0.532832	0.000882
153	142824	0.540996	0.000882
153	144430	0.54916	0.000882
153	146084	0.557324	0.000882
153	147722	0.565488	0.000882
153	149288	0.573652	0.000882
153	150861	0.581816	0.000882
153	152502	0.58998	0.000882
153	154271	0.598144	0.000882
153	155750	0.606308	0.000882
153	157210	0.614472	0.000882
153	158665	0.622636	0.000882
153	160225	0.6308	0.000882
153	161701	0.638964	0.000882
153	163150	0.647128	0.000882
153	164661	0.655292	0.000882
153	166160	0.663456	0.000882
153	167665	0.67162	0.000882
153	169163	0.679784	0.000882
153	170743	0.687948	0.000882
153	172211	0.696112	0.000882
153	173747	0.704276	0.000882
153	175229	0.71244	0.000882
153	176693	0.720604	0.000882
153	178247	0.728768	0.000882
153	179736	0.736932	0.000882
153	181285	0.745096	0.000882
153	182725	0.75326	0.000882
153	184188	0.761424	0.000882
153	185783	0.769588	0.000882
153	187268	0.777752	0.000882
153	188772	0.785916	0.000882
153	190247	0.79408	0.000882
153	191811	0.802244	0.000882
153	193139	0.810408	0.000882
153	194569	0.818572	0.000882
153	195931	0.826736	0.000882
153	197369	0.8349	0.000882
153	198614	0.843064	0.000882
153	199913	0.851228	0.000882
153	201205	0.859392	0.000882
153	202437	0.867556	0.000882
153	203651	0.87572	0.000882
153	204861	0.883884	0.000882
153	206125	0.892048	0.000882
153	207394	0.900212	0.000882
153	208605	0.908376	0.000882
153	209830	0.91654	0.000882
153	211035	0.924704	0.000882
153	212378	0.932868	0.000882
153	213607	0.941032	0.000882
153	214860	0.949196	0.000882
153	216071	0.95736	0.000882
153	217304	0.965524	0.000882
153	218592	0.973688	0.000882
153	219811	0.981852	0.000882
153	221045	0.990016	0.000882
153	222272	0.99818	0.000882
153	223516	1.006344	0.000882
153	224788	1.014508	0.000882
153	226002	1.022672	0.000882
153	227386	1.030836	0.000882
153	228470	1.039	0.000882
153	229671	1.047164	0.000882
153	230785	1.055328	0.000882
153	231887	1.063492	0.000882
153	232937	1.071656	0.000882
153	234032	1.07982	0.000882
153	235058	1.087984	0.000882
153	235917	1.096148	0.000882
153	236772	1.104312	0.000882
153	237632	1.112476	0.000882
153	238577	1.12064	0.000882
153	239536	1.128804	0.000882
153	240395	1.136968	0.000882
153	241253	1.145132	0.000882
153	242112	1.153296	0.000882
153	243107	1.16146	0.000882
153	244005	1.169624	0.000882
153	244860	1.177788	0.000882
153	245719	1.185952	0.000882
153	246613	1.194116	0.000882
153	247530	1.20228	0.000882
153	248381	1.210444	0.000882
153	249248	1.218608	0.000882
153	250107	1.226772	0.000882
153	251048	1.234936	0.000882
153	251922	1.2431	0.000882
153	252873	1.251264	0.000882
153	253732	1.259428	0.000882
153	254609	1.267592	0.000882
153	255540	1.275756	0.000882
153	256433	1.28392	0.000882
153	257350	1.292084	0.000882
153	258209	1.300248	0.000882
153	259108	1.308412	0.000882
153	260020	1.316576	0.000882
153	260930	1.32474	0.000882
153	261831	1.332904	0.000882
153	262686	1.341068	0.000882
153	263626	1.349232	0.000882
153	264501	1.357396	0.000882
153	265438	1.36556	0.000882
153	266308	1.373724	0.000882
153	267182	1.381888	0.000882
153	268119	1.390052	0.000882
153	268985	1.398216	0.000882
153	269915	1.40638	0.000882
153	270656	1.414544	0.000882
153	271437	1.422708	0.000882
153	272310	1.430872	0.000882
153	272931	1.439036	0.000882
153	273552	1.4472	0.000882
153	274173	1.455364	0.000882
153	274880	1.463528	0.000882
153	275516	1.471692	0.000882
153	276137	1.479856	0.000882
153	276758	1.48802	0.000882
153	277406	1.496184	0.000882
153	278097	1.504348	0.000882
153	278718	1.512512	0.000882
153	279339	1.520676	0.000882
153	279960	1.52884	0.000882
153	280632	1.537004	0.000882
153	281299	1.545168	0.000882
153	281920	1.553332	0.000882
153	282541	1.561496	0.000882
153	283229	1.56966	0.000882
153	283861	1.577824	0.000882
153	284368	1.585988	0.000882
153	284864	1.594152	0.000882
153	285360	1.602316	0.000882
153	285887	1.61048	0.000882
153	286449	1.618644	0.000882
153	286945	1.626808	0.000882
153	287441	1.634972	0.000882
153	287937	1.643136	0.000882
153	288492	1.6513	0.000882
153	289027	1.659464	0.000882
153	289523	1.667628	0.000882
153	290019	1.675792	0.000882
153	290515	1.683956	0.000882
153	291103	1.69212	0.000882
153	291607	1.700284	0.000882
153	292103	1.708448	0.000882
153	292599	1.716612	0.000882
153	293130	1.724776	0.000882
153	293688	1.73294	0.000882
153	294184	1.741104	0.000882
153	294680	1.749268	0.000882
153	295176	1.757432	0.000882
153	295754	1.765596	0.000882
153	296269	1.77376	0.000882
153	296765	1.781924	0.000882
153	297261	1.790088	0.000882
153	297775	1.798252	0.000882
153	298343	1.806416	0.000882
153	298846	1.81458	0.000882
153	299342	1.822744	0.000882
153	299838	1.830908	0.000882
153	300374	1.839072	0.000882
153	300927	1.847236	0.000882
153	301423	1.8554	0.000882
153	301919	1.863564	0.000882
153	302415	1.871728	0.000882
153	302996	1.879892	0.000882
153	303508	1.888056	0.000882
153	304004	1.89622	0.000882
153	304500	1.904384	0.000882
153	305016	1.912548	0.000882
153	305589	1.920712	0.000882
153	306085	1.928876	0.000882
153	306581	1.93704	0.000882
153	307077	1.945204	0.000882
153	307621	1.953368	0.000882
153	308166	1.961532	0.000882
153	308662	1.969696	0.000882
153	309158	1.97786	0.000882
153	309654	1.986024	0.000882
153	310236	1.994188	0.000882
153	310747	2.002352	0.000882
153	311243	2.010516	0.000882
153	311739	2.01868	0.000882
153	312262	2.026844	0.000882
153	312828	2.035008	0.000882
153	313324	2.043172	0.000882
153	313820	2.051336	0.000882
153	314316	2.0595	0.000882
153	314870	2.067664	0.000882
153	315405	2.075828	0.000882
153	315901	2.083992	0.000882
153	316397	2.092156	0.000882
153	316893	2.10032	0.000882
153	317479	2.108484	0.000882
153	317986	2.116648	0.000882
153	318482	2.124812	0.000882
153	318978	2.132976	0.000882
153	319505	2.14114	0.000882
153	320067	2.149304	0.000882
153	320563	2.157468	0.000882
153	321059	2.165632	0.000882
153	321555	2.173796	0.000882
153	322110	2.18196	0.000882
153	322645	2.190124	0.000882
153	323141	2.198288	0.000882
153	323637	2.206452	0.000882
153	324133	2.214616	0.000882
153	324722	2.22278	0.000882
153	325225	2.230944	0.000882
153	325721	2.239108	0.000882
153	326217	2.247272	0.000882
153	326751	2.255436	0.000882
153	327306	2.2636	0.000882
153	327802	2.271764	0.000882
153	328298	2.279928	0.000882
153	328794	2.288092	0.000882
153	329372	2.296256	0.000882
153	329887	2.30442	0.000882
153	330383	2.312584	0.000882
153	330879	2.320748	0.000882
153	331393	2.328912	0.000882
153	331968	2.337076	0.000882
153	332464	2.34524	0.000882
153	332960	2.353404	0.000882
153	333456	2.361568	0.000882
153	333995	2.369732	0.000882
153	334545	2.377896	0.000882
153	335041	2.38606	0.000882
153	335537	2.394224	0.000882
153	336033	2.402388	0.000882
153	336614	2.410552	0.000882
153	337126	2.418716	0.000882
153	337622	2.42688	0.000882
153	338118	2.435044	0.000882
153	338634	2.443208	0.000882
153	339207	2.451372	0.000882
153	339703	2.459536	0.000882
153	340254	2.4677	0.000882
153	340687	2.475864	0.000882
153	341155	2.484028	0.000882
153	341450	2.492192	0.000882
153	341696	2.500356	0.000882
154	14510	0.03936	0.036683
154	25658	0.074351	0.034101
154	35807	0.105395	0.030162
154	44511	0.133557	0.02728
155	14867	0.04025	0.00089
155	26023	0.075233	0.000882
155	36095	0.106277	0.000882
155	44742	0.134439	0.000882
156	14989	0.040848	0.03812
156	26193	0.075745	0.034015
156	36232	0.106836	0.030209
156	44886	0.134951	0.027233
156	52227	0.160278	0.024445
156	58649	0.185511	0.024351
156	64950	0.210603	0.02421
156	70160	0.229195	0.01771
156	74315	0.244952	0.014875
156	78137	0.25908	0.013246
157	15318	0.04173	0.000882
157	26550	0.076627	0.000882
157	36440	0.107718	0.000882
157	45108	0.135833	0.000882
157	52474	0.16116	0.000882
157	58864	0.186393	0.000882
157	65165	0.211485	0.000882
157	70405	0.230077	0.000882
157	74587	0.245834	0.000882
157	78321	0.259962	0.000882
158	15585	0.042289	0.03951
158	26745	0.077186	0.034015
158	36583	0.10823	0.030162
158	45277	0.136345	0.027233
158	52611	0.161719	0.024492
158	59072	0.186905	0.024304
158	65322	0.211997	0.02421
158	70541	0.230589	0.017676
158	74721	0.246346	0.014875
158	78452	0.260474	0.013246
158	81656	0.273161	0.011805
158	84856	0.285754	0.011711
158	87843	0.2983	0.011664
158	90834	0.309546	0.010364
158	93119	0.319492	0.009064
158	95428	0.32925	0.008876
158	97541	0.339008	0.008876
158	99835	0.348766	0.008876
159	15818	0.043171	0.000882
159	27190	0.078068	0.000882
159	36840	0.109112	0.000882
159	45447	0.137227	0.000882
159	52794	0.162601	0.000882
159	59317	0.187787	0.000882
159	65603	0.212913	0.000916
159	70768	0.231471	0.000882
159	75014	0.247228	0.000882
159	78684	0.261356	0.000882
159	81908	0.274043	0.000882
159	85093	0.286636	0.000882
159	88076	0.299182	0.000882
159	91030	0.310428	0.000882
159	93359	0.320374	0.000882
159	95607	0.330132	0.000882
159	97690	0.33989	0.000882
159	99987	0.349648	0.000882
160	16000	0.043683	0.040853
160	27862	0.080021	0.03457
160	36958	0.109624	0.028721
160	45602	0.137739	0.027233
160	52902	0.163113	0.024492
160	59461	0.188299	0.024304
161	16660	0.045451	0.001768
161	28146	0.080903	0.000882
161	37288	0.110506	0.000882
161	45917	0.138621	0.000882
161	53115	0.163995	0.000882
161	59597	0.189181	0.000882

