file 1729077 1651107810                                         
version 2
run General-0-20220428-00:56:44-22984
attr configname General
attr datetime 20220428-00:56:44
attr experiment General
attr inifile Jellyfish__fvj_dc_big_traffic_seed8.ini
attr iterationvars ""
attr iterationvarsf ""
attr measurement ""
attr network Jellyfish__fvj_dc_big_traffic_seed8
attr processid 22984
attr repetition 0
attr replication #0
attr resultdir results
attr runnumber 0
attr seedset 0
param **.ppp[*].ppp.queue.typename "\"DropTailQueue\""
param **.ppp[*].ppp.queue.packetCapacity 100
param *.configurator.config "xmldoc(\"Jellyfish__fvj_dc_big_traffic_seed8.xml\")"
param **.sink_000.numApps 1
param **.sink_000.app[0].typename "\"TcpGenericServerApp\""
param **.sink_000.app[0].localAddress "\"\""
param **.sink_000.app[0].localPort 1100
param **.sink_000.app[0].replyDelay 0s
param **.sink_001.numApps 1
param **.sink_001.app[0].typename "\"TcpGenericServerApp\""
param **.sink_001.app[0].localAddress "\"\""
param **.sink_001.app[0].localPort 1100
param **.sink_001.app[0].replyDelay 0s
param **.sink_002.numApps 1
param **.sink_002.app[0].typename "\"TcpGenericServerApp\""
param **.sink_002.app[0].localAddress "\"\""
param **.sink_002.app[0].localPort 1100
param **.sink_002.app[0].replyDelay 0s
param **.sink_003.numApps 1
param **.sink_003.app[0].typename "\"TcpGenericServerApp\""
param **.sink_003.app[0].localAddress "\"\""
param **.sink_003.app[0].localPort 1100
param **.sink_003.app[0].replyDelay 0s
param **.sink_004.numApps 1
param **.sink_004.app[0].typename "\"TcpGenericServerApp\""
param **.sink_004.app[0].localAddress "\"\""
param **.sink_004.app[0].localPort 1100
param **.sink_004.app[0].replyDelay 0s
param **.sink_005.numApps 1
param **.sink_005.app[0].typename "\"TcpGenericServerApp\""
param **.sink_005.app[0].localAddress "\"\""
param **.sink_005.app[0].localPort 1100
param **.sink_005.app[0].replyDelay 0s
param **.sink_006.numApps 1
param **.sink_006.app[0].typename "\"TcpGenericServerApp\""
param **.sink_006.app[0].localAddress "\"\""
param **.sink_006.app[0].localPort 1100
param **.sink_006.app[0].replyDelay 0s
param **.sink_007.numApps 1
param **.sink_007.app[0].typename "\"TcpGenericServerApp\""
param **.sink_007.app[0].localAddress "\"\""
param **.sink_007.app[0].localPort 1100
param **.sink_007.app[0].replyDelay 0s
param **.sink_008.numApps 1
param **.sink_008.app[0].typename "\"TcpGenericServerApp\""
param **.sink_008.app[0].localAddress "\"\""
param **.sink_008.app[0].localPort 1100
param **.sink_008.app[0].replyDelay 0s
param **.sink_009.numApps 1
param **.sink_009.app[0].typename "\"TcpGenericServerApp\""
param **.sink_009.app[0].localAddress "\"\""
param **.sink_009.app[0].localPort 1100
param **.sink_009.app[0].replyDelay 0s
param **.sink_010.numApps 1
param **.sink_010.app[0].typename "\"TcpGenericServerApp\""
param **.sink_010.app[0].localAddress "\"\""
param **.sink_010.app[0].localPort 1100
param **.sink_010.app[0].replyDelay 0s
param **.sink_011.numApps 1
param **.sink_011.app[0].typename "\"TcpGenericServerApp\""
param **.sink_011.app[0].localAddress "\"\""
param **.sink_011.app[0].localPort 1100
param **.sink_011.app[0].replyDelay 0s
param **.sink_012.numApps 1
param **.sink_012.app[0].typename "\"TcpGenericServerApp\""
param **.sink_012.app[0].localAddress "\"\""
param **.sink_012.app[0].localPort 1100
param **.sink_012.app[0].replyDelay 0s
param **.sink_013.numApps 1
param **.sink_013.app[0].typename "\"TcpGenericServerApp\""
param **.sink_013.app[0].localAddress "\"\""
param **.sink_013.app[0].localPort 1100
param **.sink_013.app[0].replyDelay 0s
param **.sink_014.numApps 1
param **.sink_014.app[0].typename "\"TcpGenericServerApp\""
param **.sink_014.app[0].localAddress "\"\""
param **.sink_014.app[0].localPort 1100
param **.sink_014.app[0].replyDelay 0s
param **.sink_015.numApps 1
param **.sink_015.app[0].typename "\"TcpGenericServerApp\""
param **.sink_015.app[0].localAddress "\"\""
param **.sink_015.app[0].localPort 1100
param **.sink_015.app[0].replyDelay 0s
param **.sink_016.numApps 1
param **.sink_016.app[0].typename "\"TcpGenericServerApp\""
param **.sink_016.app[0].localAddress "\"\""
param **.sink_016.app[0].localPort 1100
param **.sink_016.app[0].replyDelay 0s
param **.sink_017.numApps 1
param **.sink_017.app[0].typename "\"TcpGenericServerApp\""
param **.sink_017.app[0].localAddress "\"\""
param **.sink_017.app[0].localPort 1100
param **.sink_017.app[0].replyDelay 0s
param **.sink_018.numApps 1
param **.sink_018.app[0].typename "\"TcpGenericServerApp\""
param **.sink_018.app[0].localAddress "\"\""
param **.sink_018.app[0].localPort 1100
param **.sink_018.app[0].replyDelay 0s
param **.sink_019.numApps 1
param **.sink_019.app[0].typename "\"TcpGenericServerApp\""
param **.sink_019.app[0].localAddress "\"\""
param **.sink_019.app[0].localPort 1100
param **.sink_019.app[0].replyDelay 0s
param **.sink_020.numApps 1
param **.sink_020.app[0].typename "\"TcpGenericServerApp\""
param **.sink_020.app[0].localAddress "\"\""
param **.sink_020.app[0].localPort 1100
param **.sink_020.app[0].replyDelay 0s
param **.sink_021.numApps 1
param **.sink_021.app[0].typename "\"TcpGenericServerApp\""
param **.sink_021.app[0].localAddress "\"\""
param **.sink_021.app[0].localPort 1100
param **.sink_021.app[0].replyDelay 0s
param **.sink_022.numApps 1
param **.sink_022.app[0].typename "\"TcpGenericServerApp\""
param **.sink_022.app[0].localAddress "\"\""
param **.sink_022.app[0].localPort 1100
param **.sink_022.app[0].replyDelay 0s
param **.sink_023.numApps 1
param **.sink_023.app[0].typename "\"TcpGenericServerApp\""
param **.sink_023.app[0].localAddress "\"\""
param **.sink_023.app[0].localPort 1100
param **.sink_023.app[0].replyDelay 0s
param **.sink_024.numApps 1
param **.sink_024.app[0].typename "\"TcpGenericServerApp\""
param **.sink_024.app[0].localAddress "\"\""
param **.sink_024.app[0].localPort 1100
param **.sink_024.app[0].replyDelay 0s
param **.sink_025.numApps 1
param **.sink_025.app[0].typename "\"TcpGenericServerApp\""
param **.sink_025.app[0].localAddress "\"\""
param **.sink_025.app[0].localPort 1100
param **.sink_025.app[0].replyDelay 0s
param **.sink_026.numApps 1
param **.sink_026.app[0].typename "\"TcpGenericServerApp\""
param **.sink_026.app[0].localAddress "\"\""
param **.sink_026.app[0].localPort 1100
param **.sink_026.app[0].replyDelay 0s
param **.sink_027.numApps 1
param **.sink_027.app[0].typename "\"TcpGenericServerApp\""
param **.sink_027.app[0].localAddress "\"\""
param **.sink_027.app[0].localPort 1100
param **.sink_027.app[0].replyDelay 0s
param **.sink_028.numApps 1
param **.sink_028.app[0].typename "\"TcpGenericServerApp\""
param **.sink_028.app[0].localAddress "\"\""
param **.sink_028.app[0].localPort 1100
param **.sink_028.app[0].replyDelay 0s
param **.sink_029.numApps 1
param **.sink_029.app[0].typename "\"TcpGenericServerApp\""
param **.sink_029.app[0].localAddress "\"\""
param **.sink_029.app[0].localPort 1100
param **.sink_029.app[0].replyDelay 0s
param **.sink_030.numApps 1
param **.sink_030.app[0].typename "\"TcpGenericServerApp\""
param **.sink_030.app[0].localAddress "\"\""
param **.sink_030.app[0].localPort 1100
param **.sink_030.app[0].replyDelay 0s
param **.sink_031.numApps 1
param **.sink_031.app[0].typename "\"TcpGenericServerApp\""
param **.sink_031.app[0].localAddress "\"\""
param **.sink_031.app[0].localPort 1100
param **.sink_031.app[0].replyDelay 0s
param **.sink_032.numApps 1
param **.sink_032.app[0].typename "\"TcpGenericServerApp\""
param **.sink_032.app[0].localAddress "\"\""
param **.sink_032.app[0].localPort 1100
param **.sink_032.app[0].replyDelay 0s
param **.sink_033.numApps 1
param **.sink_033.app[0].typename "\"TcpGenericServerApp\""
param **.sink_033.app[0].localAddress "\"\""
param **.sink_033.app[0].localPort 1100
param **.sink_033.app[0].replyDelay 0s
param **.sink_034.numApps 1
param **.sink_034.app[0].typename "\"TcpGenericServerApp\""
param **.sink_034.app[0].localAddress "\"\""
param **.sink_034.app[0].localPort 1100
param **.sink_034.app[0].replyDelay 0s
param **.sink_035.numApps 1
param **.sink_035.app[0].typename "\"TcpGenericServerApp\""
param **.sink_035.app[0].localAddress "\"\""
param **.sink_035.app[0].localPort 1100
param **.sink_035.app[0].replyDelay 0s
param **.sink_036.numApps 1
param **.sink_036.app[0].typename "\"TcpGenericServerApp\""
param **.sink_036.app[0].localAddress "\"\""
param **.sink_036.app[0].localPort 1100
param **.sink_036.app[0].replyDelay 0s
param **.sink_037.numApps 1
param **.sink_037.app[0].typename "\"TcpGenericServerApp\""
param **.sink_037.app[0].localAddress "\"\""
param **.sink_037.app[0].localPort 1100
param **.sink_037.app[0].replyDelay 0s
param **.sink_038.numApps 1
param **.sink_038.app[0].typename "\"TcpGenericServerApp\""
param **.sink_038.app[0].localAddress "\"\""
param **.sink_038.app[0].localPort 1100
param **.sink_038.app[0].replyDelay 0s
param **.sink_039.numApps 1
param **.sink_039.app[0].typename "\"TcpGenericServerApp\""
param **.sink_039.app[0].localAddress "\"\""
param **.sink_039.app[0].localPort 1100
param **.sink_039.app[0].replyDelay 0s
param **.sink_040.numApps 1
param **.sink_040.app[0].typename "\"TcpGenericServerApp\""
param **.sink_040.app[0].localAddress "\"\""
param **.sink_040.app[0].localPort 1100
param **.sink_040.app[0].replyDelay 0s
param **.sink_041.numApps 1
param **.sink_041.app[0].typename "\"TcpGenericServerApp\""
param **.sink_041.app[0].localAddress "\"\""
param **.sink_041.app[0].localPort 1100
param **.sink_041.app[0].replyDelay 0s
param **.sink_042.numApps 1
param **.sink_042.app[0].typename "\"TcpGenericServerApp\""
param **.sink_042.app[0].localAddress "\"\""
param **.sink_042.app[0].localPort 1100
param **.sink_042.app[0].replyDelay 0s
param **.sink_043.numApps 1
param **.sink_043.app[0].typename "\"TcpGenericServerApp\""
param **.sink_043.app[0].localAddress "\"\""
param **.sink_043.app[0].localPort 1100
param **.sink_043.app[0].replyDelay 0s
param **.sink_044.numApps 1
param **.sink_044.app[0].typename "\"TcpGenericServerApp\""
param **.sink_044.app[0].localAddress "\"\""
param **.sink_044.app[0].localPort 1100
param **.sink_044.app[0].replyDelay 0s
param **.sink_045.numApps 1
param **.sink_045.app[0].typename "\"TcpGenericServerApp\""
param **.sink_045.app[0].localAddress "\"\""
param **.sink_045.app[0].localPort 1100
param **.sink_045.app[0].replyDelay 0s
param **.sink_046.numApps 1
param **.sink_046.app[0].typename "\"TcpGenericServerApp\""
param **.sink_046.app[0].localAddress "\"\""
param **.sink_046.app[0].localPort 1100
param **.sink_046.app[0].replyDelay 0s
param **.sink_047.numApps 1
param **.sink_047.app[0].typename "\"TcpGenericServerApp\""
param **.sink_047.app[0].localAddress "\"\""
param **.sink_047.app[0].localPort 1100
param **.sink_047.app[0].replyDelay 0s
param **.sink_048.numApps 1
param **.sink_048.app[0].typename "\"TcpGenericServerApp\""
param **.sink_048.app[0].localAddress "\"\""
param **.sink_048.app[0].localPort 1100
param **.sink_048.app[0].replyDelay 0s
param **.sink_049.numApps 1
param **.sink_049.app[0].typename "\"TcpGenericServerApp\""
param **.sink_049.app[0].localAddress "\"\""
param **.sink_049.app[0].localPort 1100
param **.sink_049.app[0].replyDelay 0s
param **.sink_050.numApps 1
param **.sink_050.app[0].typename "\"TcpGenericServerApp\""
param **.sink_050.app[0].localAddress "\"\""
param **.sink_050.app[0].localPort 1100
param **.sink_050.app[0].replyDelay 0s
param **.sink_051.numApps 1
param **.sink_051.app[0].typename "\"TcpGenericServerApp\""
param **.sink_051.app[0].localAddress "\"\""
param **.sink_051.app[0].localPort 1100
param **.sink_051.app[0].replyDelay 0s
param **.sink_052.numApps 1
param **.sink_052.app[0].typename "\"TcpGenericServerApp\""
param **.sink_052.app[0].localAddress "\"\""
param **.sink_052.app[0].localPort 1100
param **.sink_052.app[0].replyDelay 0s
param **.sink_053.numApps 1
param **.sink_053.app[0].typename "\"TcpGenericServerApp\""
param **.sink_053.app[0].localAddress "\"\""
param **.sink_053.app[0].localPort 1100
param **.sink_053.app[0].replyDelay 0s
param **.sink_054.numApps 1
param **.sink_054.app[0].typename "\"TcpGenericServerApp\""
param **.sink_054.app[0].localAddress "\"\""
param **.sink_054.app[0].localPort 1100
param **.sink_054.app[0].replyDelay 0s
param **.sink_055.numApps 1
param **.sink_055.app[0].typename "\"TcpGenericServerApp\""
param **.sink_055.app[0].localAddress "\"\""
param **.sink_055.app[0].localPort 1100
param **.sink_055.app[0].replyDelay 0s
param **.sink_056.numApps 1
param **.sink_056.app[0].typename "\"TcpGenericServerApp\""
param **.sink_056.app[0].localAddress "\"\""
param **.sink_056.app[0].localPort 1100
param **.sink_056.app[0].replyDelay 0s
param **.sink_057.numApps 1
param **.sink_057.app[0].typename "\"TcpGenericServerApp\""
param **.sink_057.app[0].localAddress "\"\""
param **.sink_057.app[0].localPort 1100
param **.sink_057.app[0].replyDelay 0s
param **.sink_058.numApps 1
param **.sink_058.app[0].typename "\"TcpGenericServerApp\""
param **.sink_058.app[0].localAddress "\"\""
param **.sink_058.app[0].localPort 1100
param **.sink_058.app[0].replyDelay 0s
param **.sink_059.numApps 1
param **.sink_059.app[0].typename "\"TcpGenericServerApp\""
param **.sink_059.app[0].localAddress "\"\""
param **.sink_059.app[0].localPort 1100
param **.sink_059.app[0].replyDelay 0s
param **.sink_060.numApps 1
param **.sink_060.app[0].typename "\"TcpGenericServerApp\""
param **.sink_060.app[0].localAddress "\"\""
param **.sink_060.app[0].localPort 1100
param **.sink_060.app[0].replyDelay 0s
param **.sink_061.numApps 1
param **.sink_061.app[0].typename "\"TcpGenericServerApp\""
param **.sink_061.app[0].localAddress "\"\""
param **.sink_061.app[0].localPort 1100
param **.sink_061.app[0].replyDelay 0s
param **.sink_062.numApps 1
param **.sink_062.app[0].typename "\"TcpGenericServerApp\""
param **.sink_062.app[0].localAddress "\"\""
param **.sink_062.app[0].localPort 1100
param **.sink_062.app[0].replyDelay 0s
param **.sink_063.numApps 1
param **.sink_063.app[0].typename "\"TcpGenericServerApp\""
param **.sink_063.app[0].localAddress "\"\""
param **.sink_063.app[0].localPort 1100
param **.sink_063.app[0].replyDelay 0s
param **.sink_064.numApps 1
param **.sink_064.app[0].typename "\"TcpGenericServerApp\""
param **.sink_064.app[0].localAddress "\"\""
param **.sink_064.app[0].localPort 1100
param **.sink_064.app[0].replyDelay 0s
param **.sink_065.numApps 1
param **.sink_065.app[0].typename "\"TcpGenericServerApp\""
param **.sink_065.app[0].localAddress "\"\""
param **.sink_065.app[0].localPort 1100
param **.sink_065.app[0].replyDelay 0s
param **.sink_066.numApps 1
param **.sink_066.app[0].typename "\"TcpGenericServerApp\""
param **.sink_066.app[0].localAddress "\"\""
param **.sink_066.app[0].localPort 1100
param **.sink_066.app[0].replyDelay 0s
param **.sink_067.numApps 1
param **.sink_067.app[0].typename "\"TcpGenericServerApp\""
param **.sink_067.app[0].localAddress "\"\""
param **.sink_067.app[0].localPort 1100
param **.sink_067.app[0].replyDelay 0s
param **.sink_068.numApps 1
param **.sink_068.app[0].typename "\"TcpGenericServerApp\""
param **.sink_068.app[0].localAddress "\"\""
param **.sink_068.app[0].localPort 1100
param **.sink_068.app[0].replyDelay 0s
param **.sink_069.numApps 1
param **.sink_069.app[0].typename "\"TcpGenericServerApp\""
param **.sink_069.app[0].localAddress "\"\""
param **.sink_069.app[0].localPort 1100
param **.sink_069.app[0].replyDelay 0s
param **.sink_070.numApps 1
param **.sink_070.app[0].typename "\"TcpGenericServerApp\""
param **.sink_070.app[0].localAddress "\"\""
param **.sink_070.app[0].localPort 1100
param **.sink_070.app[0].replyDelay 0s
param **.sink_071.numApps 1
param **.sink_071.app[0].typename "\"TcpGenericServerApp\""
param **.sink_071.app[0].localAddress "\"\""
param **.sink_071.app[0].localPort 1100
param **.sink_071.app[0].replyDelay 0s
param **.sink_072.numApps 1
param **.sink_072.app[0].typename "\"TcpGenericServerApp\""
param **.sink_072.app[0].localAddress "\"\""
param **.sink_072.app[0].localPort 1100
param **.sink_072.app[0].replyDelay 0s
param **.sink_073.numApps 1
param **.sink_073.app[0].typename "\"TcpGenericServerApp\""
param **.sink_073.app[0].localAddress "\"\""
param **.sink_073.app[0].localPort 1100
param **.sink_073.app[0].replyDelay 0s
param **.sink_074.numApps 1
param **.sink_074.app[0].typename "\"TcpGenericServerApp\""
param **.sink_074.app[0].localAddress "\"\""
param **.sink_074.app[0].localPort 1100
param **.sink_074.app[0].replyDelay 0s
param **.sink_075.numApps 1
param **.sink_075.app[0].typename "\"TcpGenericServerApp\""
param **.sink_075.app[0].localAddress "\"\""
param **.sink_075.app[0].localPort 1100
param **.sink_075.app[0].replyDelay 0s
param **.sink_076.numApps 1
param **.sink_076.app[0].typename "\"TcpGenericServerApp\""
param **.sink_076.app[0].localAddress "\"\""
param **.sink_076.app[0].localPort 1100
param **.sink_076.app[0].replyDelay 0s
param **.sink_077.numApps 1
param **.sink_077.app[0].typename "\"TcpGenericServerApp\""
param **.sink_077.app[0].localAddress "\"\""
param **.sink_077.app[0].localPort 1100
param **.sink_077.app[0].replyDelay 0s
param **.sink_078.numApps 1
param **.sink_078.app[0].typename "\"TcpGenericServerApp\""
param **.sink_078.app[0].localAddress "\"\""
param **.sink_078.app[0].localPort 1100
param **.sink_078.app[0].replyDelay 0s
param **.sink_079.numApps 1
param **.sink_079.app[0].typename "\"TcpGenericServerApp\""
param **.sink_079.app[0].localAddress "\"\""
param **.sink_079.app[0].localPort 1100
param **.sink_079.app[0].replyDelay 0s
param **.sink_080.numApps 1
param **.sink_080.app[0].typename "\"TcpGenericServerApp\""
param **.sink_080.app[0].localAddress "\"\""
param **.sink_080.app[0].localPort 1100
param **.sink_080.app[0].replyDelay 0s
param **.sink_081.numApps 1
param **.sink_081.app[0].typename "\"TcpGenericServerApp\""
param **.sink_081.app[0].localAddress "\"\""
param **.sink_081.app[0].localPort 1100
param **.sink_081.app[0].replyDelay 0s
param **.sink_082.numApps 1
param **.sink_082.app[0].typename "\"TcpGenericServerApp\""
param **.sink_082.app[0].localAddress "\"\""
param **.sink_082.app[0].localPort 1100
param **.sink_082.app[0].replyDelay 0s
param **.sink_083.numApps 1
param **.sink_083.app[0].typename "\"TcpGenericServerApp\""
param **.sink_083.app[0].localAddress "\"\""
param **.sink_083.app[0].localPort 1100
param **.sink_083.app[0].replyDelay 0s
param **.sink_084.numApps 1
param **.sink_084.app[0].typename "\"TcpGenericServerApp\""
param **.sink_084.app[0].localAddress "\"\""
param **.sink_084.app[0].localPort 1100
param **.sink_084.app[0].replyDelay 0s
param **.sink_085.numApps 1
param **.sink_085.app[0].typename "\"TcpGenericServerApp\""
param **.sink_085.app[0].localAddress "\"\""
param **.sink_085.app[0].localPort 1100
param **.sink_085.app[0].replyDelay 0s
param **.sink_086.numApps 1
param **.sink_086.app[0].typename "\"TcpGenericServerApp\""
param **.sink_086.app[0].localAddress "\"\""
param **.sink_086.app[0].localPort 1100
param **.sink_086.app[0].replyDelay 0s
param **.sink_087.numApps 1
param **.sink_087.app[0].typename "\"TcpGenericServerApp\""
param **.sink_087.app[0].localAddress "\"\""
param **.sink_087.app[0].localPort 1100
param **.sink_087.app[0].replyDelay 0s
param **.sink_088.numApps 1
param **.sink_088.app[0].typename "\"TcpGenericServerApp\""
param **.sink_088.app[0].localAddress "\"\""
param **.sink_088.app[0].localPort 1100
param **.sink_088.app[0].replyDelay 0s
param **.sink_089.numApps 1
param **.sink_089.app[0].typename "\"TcpGenericServerApp\""
param **.sink_089.app[0].localAddress "\"\""
param **.sink_089.app[0].localPort 1100
param **.sink_089.app[0].replyDelay 0s
param **.sink_090.numApps 1
param **.sink_090.app[0].typename "\"TcpGenericServerApp\""
param **.sink_090.app[0].localAddress "\"\""
param **.sink_090.app[0].localPort 1100
param **.sink_090.app[0].replyDelay 0s
param **.sink_091.numApps 1
param **.sink_091.app[0].typename "\"TcpGenericServerApp\""
param **.sink_091.app[0].localAddress "\"\""
param **.sink_091.app[0].localPort 1100
param **.sink_091.app[0].replyDelay 0s
param **.sink_092.numApps 1
param **.sink_092.app[0].typename "\"TcpGenericServerApp\""
param **.sink_092.app[0].localAddress "\"\""
param **.sink_092.app[0].localPort 1100
param **.sink_092.app[0].replyDelay 0s
param **.sink_093.numApps 1
param **.sink_093.app[0].typename "\"TcpGenericServerApp\""
param **.sink_093.app[0].localAddress "\"\""
param **.sink_093.app[0].localPort 1100
param **.sink_093.app[0].replyDelay 0s
param **.sink_094.numApps 1
param **.sink_094.app[0].typename "\"TcpGenericServerApp\""
param **.sink_094.app[0].localAddress "\"\""
param **.sink_094.app[0].localPort 1100
param **.sink_094.app[0].replyDelay 0s
param **.sink_095.numApps 1
param **.sink_095.app[0].typename "\"TcpGenericServerApp\""
param **.sink_095.app[0].localAddress "\"\""
param **.sink_095.app[0].localPort 1100
param **.sink_095.app[0].replyDelay 0s
param **.sink_096.numApps 1
param **.sink_096.app[0].typename "\"TcpGenericServerApp\""
param **.sink_096.app[0].localAddress "\"\""
param **.sink_096.app[0].localPort 1100
param **.sink_096.app[0].replyDelay 0s
param **.sink_097.numApps 1
param **.sink_097.app[0].typename "\"TcpGenericServerApp\""
param **.sink_097.app[0].localAddress "\"\""
param **.sink_097.app[0].localPort 1100
param **.sink_097.app[0].replyDelay 0s
param **.sink_098.numApps 1
param **.sink_098.app[0].typename "\"TcpGenericServerApp\""
param **.sink_098.app[0].localAddress "\"\""
param **.sink_098.app[0].localPort 1100
param **.sink_098.app[0].replyDelay 0s
param **.sink_099.numApps 1
param **.sink_099.app[0].typename "\"TcpGenericServerApp\""
param **.sink_099.app[0].localAddress "\"\""
param **.sink_099.app[0].localPort 1100
param **.sink_099.app[0].replyDelay 0s
param **.sink_100.numApps 1
param **.sink_100.app[0].typename "\"TcpGenericServerApp\""
param **.sink_100.app[0].localAddress "\"\""
param **.sink_100.app[0].localPort 1100
param **.sink_100.app[0].replyDelay 0s
param **.sink_101.numApps 1
param **.sink_101.app[0].typename "\"TcpGenericServerApp\""
param **.sink_101.app[0].localAddress "\"\""
param **.sink_101.app[0].localPort 1100
param **.sink_101.app[0].replyDelay 0s
param **.sink_102.numApps 1
param **.sink_102.app[0].typename "\"TcpGenericServerApp\""
param **.sink_102.app[0].localAddress "\"\""
param **.sink_102.app[0].localPort 1100
param **.sink_102.app[0].replyDelay 0s
param **.sink_103.numApps 1
param **.sink_103.app[0].typename "\"TcpGenericServerApp\""
param **.sink_103.app[0].localAddress "\"\""
param **.sink_103.app[0].localPort 1100
param **.sink_103.app[0].replyDelay 0s
param **.sink_104.numApps 1
param **.sink_104.app[0].typename "\"TcpGenericServerApp\""
param **.sink_104.app[0].localAddress "\"\""
param **.sink_104.app[0].localPort 1100
param **.sink_104.app[0].replyDelay 0s
param **.sink_105.numApps 1
param **.sink_105.app[0].typename "\"TcpGenericServerApp\""
param **.sink_105.app[0].localAddress "\"\""
param **.sink_105.app[0].localPort 1100
param **.sink_105.app[0].replyDelay 0s
param **.sink_106.numApps 1
param **.sink_106.app[0].typename "\"TcpGenericServerApp\""
param **.sink_106.app[0].localAddress "\"\""
param **.sink_106.app[0].localPort 1100
param **.sink_106.app[0].replyDelay 0s
param **.sink_107.numApps 1
param **.sink_107.app[0].typename "\"TcpGenericServerApp\""
param **.sink_107.app[0].localAddress "\"\""
param **.sink_107.app[0].localPort 1100
param **.sink_107.app[0].replyDelay 0s
param **.sink_108.numApps 1
param **.sink_108.app[0].typename "\"TcpGenericServerApp\""
param **.sink_108.app[0].localAddress "\"\""
param **.sink_108.app[0].localPort 1100
param **.sink_108.app[0].replyDelay 0s
param **.sink_109.numApps 1
param **.sink_109.app[0].typename "\"TcpGenericServerApp\""
param **.sink_109.app[0].localAddress "\"\""
param **.sink_109.app[0].localPort 1100
param **.sink_109.app[0].replyDelay 0s
param **.sink_110.numApps 1
param **.sink_110.app[0].typename "\"TcpGenericServerApp\""
param **.sink_110.app[0].localAddress "\"\""
param **.sink_110.app[0].localPort 1100
param **.sink_110.app[0].replyDelay 0s
param **.sink_111.numApps 1
param **.sink_111.app[0].typename "\"TcpGenericServerApp\""
param **.sink_111.app[0].localAddress "\"\""
param **.sink_111.app[0].localPort 1100
param **.sink_111.app[0].replyDelay 0s
param **.sink_112.numApps 1
param **.sink_112.app[0].typename "\"TcpGenericServerApp\""
param **.sink_112.app[0].localAddress "\"\""
param **.sink_112.app[0].localPort 1100
param **.sink_112.app[0].replyDelay 0s
param **.sink_113.numApps 1
param **.sink_113.app[0].typename "\"TcpGenericServerApp\""
param **.sink_113.app[0].localAddress "\"\""
param **.sink_113.app[0].localPort 1100
param **.sink_113.app[0].replyDelay 0s
param **.sink_114.numApps 1
param **.sink_114.app[0].typename "\"TcpGenericServerApp\""
param **.sink_114.app[0].localAddress "\"\""
param **.sink_114.app[0].localPort 1100
param **.sink_114.app[0].replyDelay 0s
param **.sink_115.numApps 1
param **.sink_115.app[0].typename "\"TcpGenericServerApp\""
param **.sink_115.app[0].localAddress "\"\""
param **.sink_115.app[0].localPort 1100
param **.sink_115.app[0].replyDelay 0s
param **.sink_116.numApps 1
param **.sink_116.app[0].typename "\"TcpGenericServerApp\""
param **.sink_116.app[0].localAddress "\"\""
param **.sink_116.app[0].localPort 1100
param **.sink_116.app[0].replyDelay 0s
param **.sink_117.numApps 1
param **.sink_117.app[0].typename "\"TcpGenericServerApp\""
param **.sink_117.app[0].localAddress "\"\""
param **.sink_117.app[0].localPort 1100
param **.sink_117.app[0].replyDelay 0s
param **.sink_118.numApps 1
param **.sink_118.app[0].typename "\"TcpGenericServerApp\""
param **.sink_118.app[0].localAddress "\"\""
param **.sink_118.app[0].localPort 1100
param **.sink_118.app[0].replyDelay 0s
param **.sink_119.numApps 1
param **.sink_119.app[0].typename "\"TcpGenericServerApp\""
param **.sink_119.app[0].localAddress "\"\""
param **.sink_119.app[0].localPort 1100
param **.sink_119.app[0].replyDelay 0s
param **.sink_120.numApps 1
param **.sink_120.app[0].typename "\"TcpGenericServerApp\""
param **.sink_120.app[0].localAddress "\"\""
param **.sink_120.app[0].localPort 1100
param **.sink_120.app[0].replyDelay 0s
param **.sink_121.numApps 1
param **.sink_121.app[0].typename "\"TcpGenericServerApp\""
param **.sink_121.app[0].localAddress "\"\""
param **.sink_121.app[0].localPort 1100
param **.sink_121.app[0].replyDelay 0s
param **.sink_122.numApps 1
param **.sink_122.app[0].typename "\"TcpGenericServerApp\""
param **.sink_122.app[0].localAddress "\"\""
param **.sink_122.app[0].localPort 1100
param **.sink_122.app[0].replyDelay 0s
param **.sink_123.numApps 1
param **.sink_123.app[0].typename "\"TcpGenericServerApp\""
param **.sink_123.app[0].localAddress "\"\""
param **.sink_123.app[0].localPort 1100
param **.sink_123.app[0].replyDelay 0s
param **.sink_124.numApps 1
param **.sink_124.app[0].typename "\"TcpGenericServerApp\""
param **.sink_124.app[0].localAddress "\"\""
param **.sink_124.app[0].localPort 1100
param **.sink_124.app[0].replyDelay 0s
param **.sink_125.numApps 1
param **.sink_125.app[0].typename "\"TcpGenericServerApp\""
param **.sink_125.app[0].localAddress "\"\""
param **.sink_125.app[0].localPort 1100
param **.sink_125.app[0].replyDelay 0s
param **.sink_126.numApps 1
param **.sink_126.app[0].typename "\"TcpGenericServerApp\""
param **.sink_126.app[0].localAddress "\"\""
param **.sink_126.app[0].localPort 1100
param **.sink_126.app[0].replyDelay 0s
param **.sink_127.numApps 1
param **.sink_127.app[0].typename "\"TcpGenericServerApp\""
param **.sink_127.app[0].localAddress "\"\""
param **.sink_127.app[0].localPort 1100
param **.sink_127.app[0].replyDelay 0s
param **.sink_128.numApps 1
param **.sink_128.app[0].typename "\"TcpGenericServerApp\""
param **.sink_128.app[0].localAddress "\"\""
param **.sink_128.app[0].localPort 1100
param **.sink_128.app[0].replyDelay 0s
param **.sink_129.numApps 1
param **.sink_129.app[0].typename "\"TcpGenericServerApp\""
param **.sink_129.app[0].localAddress "\"\""
param **.sink_129.app[0].localPort 1100
param **.sink_129.app[0].replyDelay 0s
param **.sink_130.numApps 1
param **.sink_130.app[0].typename "\"TcpGenericServerApp\""
param **.sink_130.app[0].localAddress "\"\""
param **.sink_130.app[0].localPort 1100
param **.sink_130.app[0].replyDelay 0s
param **.sink_131.numApps 1
param **.sink_131.app[0].typename "\"TcpGenericServerApp\""
param **.sink_131.app[0].localAddress "\"\""
param **.sink_131.app[0].localPort 1100
param **.sink_131.app[0].replyDelay 0s
param **.sink_132.numApps 1
param **.sink_132.app[0].typename "\"TcpGenericServerApp\""
param **.sink_132.app[0].localAddress "\"\""
param **.sink_132.app[0].localPort 1100
param **.sink_132.app[0].replyDelay 0s
param **.sink_133.numApps 1
param **.sink_133.app[0].typename "\"TcpGenericServerApp\""
param **.sink_133.app[0].localAddress "\"\""
param **.sink_133.app[0].localPort 1100
param **.sink_133.app[0].replyDelay 0s
param **.sink_134.numApps 1
param **.sink_134.app[0].typename "\"TcpGenericServerApp\""
param **.sink_134.app[0].localAddress "\"\""
param **.sink_134.app[0].localPort 1100
param **.sink_134.app[0].replyDelay 0s
param **.sink_135.numApps 1
param **.sink_135.app[0].typename "\"TcpGenericServerApp\""
param **.sink_135.app[0].localAddress "\"\""
param **.sink_135.app[0].localPort 1100
param **.sink_135.app[0].replyDelay 0s
param **.sink_136.numApps 1
param **.sink_136.app[0].typename "\"TcpGenericServerApp\""
param **.sink_136.app[0].localAddress "\"\""
param **.sink_136.app[0].localPort 1100
param **.sink_136.app[0].replyDelay 0s
param **.sink_137.numApps 1
param **.sink_137.app[0].typename "\"TcpGenericServerApp\""
param **.sink_137.app[0].localAddress "\"\""
param **.sink_137.app[0].localPort 1100
param **.sink_137.app[0].replyDelay 0s
param **.sink_138.numApps 1
param **.sink_138.app[0].typename "\"TcpGenericServerApp\""
param **.sink_138.app[0].localAddress "\"\""
param **.sink_138.app[0].localPort 1100
param **.sink_138.app[0].replyDelay 0s
param **.sink_139.numApps 1
param **.sink_139.app[0].typename "\"TcpGenericServerApp\""
param **.sink_139.app[0].localAddress "\"\""
param **.sink_139.app[0].localPort 1100
param **.sink_139.app[0].replyDelay 0s
param **.sink_140.numApps 1
param **.sink_140.app[0].typename "\"TcpGenericServerApp\""
param **.sink_140.app[0].localAddress "\"\""
param **.sink_140.app[0].localPort 1100
param **.sink_140.app[0].replyDelay 0s
param **.sink_141.numApps 1
param **.sink_141.app[0].typename "\"TcpGenericServerApp\""
param **.sink_141.app[0].localAddress "\"\""
param **.sink_141.app[0].localPort 1100
param **.sink_141.app[0].replyDelay 0s
param **.sink_142.numApps 1
param **.sink_142.app[0].typename "\"TcpGenericServerApp\""
param **.sink_142.app[0].localAddress "\"\""
param **.sink_142.app[0].localPort 1100
param **.sink_142.app[0].replyDelay 0s
param **.sink_143.numApps 1
param **.sink_143.app[0].typename "\"TcpGenericServerApp\""
param **.sink_143.app[0].localAddress "\"\""
param **.sink_143.app[0].localPort 1100
param **.sink_143.app[0].replyDelay 0s
param **.sink_144.numApps 1
param **.sink_144.app[0].typename "\"TcpGenericServerApp\""
param **.sink_144.app[0].localAddress "\"\""
param **.sink_144.app[0].localPort 1100
param **.sink_144.app[0].replyDelay 0s
param **.sink_145.numApps 1
param **.sink_145.app[0].typename "\"TcpGenericServerApp\""
param **.sink_145.app[0].localAddress "\"\""
param **.sink_145.app[0].localPort 1100
param **.sink_145.app[0].replyDelay 0s
param **.sink_146.numApps 1
param **.sink_146.app[0].typename "\"TcpGenericServerApp\""
param **.sink_146.app[0].localAddress "\"\""
param **.sink_146.app[0].localPort 1100
param **.sink_146.app[0].replyDelay 0s
param **.sink_147.numApps 1
param **.sink_147.app[0].typename "\"TcpGenericServerApp\""
param **.sink_147.app[0].localAddress "\"\""
param **.sink_147.app[0].localPort 1100
param **.sink_147.app[0].replyDelay 0s
param **.sink_148.numApps 1
param **.sink_148.app[0].typename "\"TcpGenericServerApp\""
param **.sink_148.app[0].localAddress "\"\""
param **.sink_148.app[0].localPort 1100
param **.sink_148.app[0].replyDelay 0s
param **.sink_149.numApps 1
param **.sink_149.app[0].typename "\"TcpGenericServerApp\""
param **.sink_149.app[0].localAddress "\"\""
param **.sink_149.app[0].localPort 1100
param **.sink_149.app[0].replyDelay 0s
param **.sink_150.numApps 1
param **.sink_150.app[0].typename "\"TcpGenericServerApp\""
param **.sink_150.app[0].localAddress "\"\""
param **.sink_150.app[0].localPort 1100
param **.sink_150.app[0].replyDelay 0s
param **.sink_151.numApps 1
param **.sink_151.app[0].typename "\"TcpGenericServerApp\""
param **.sink_151.app[0].localAddress "\"\""
param **.sink_151.app[0].localPort 1100
param **.sink_151.app[0].replyDelay 0s
param **.sink_152.numApps 1
param **.sink_152.app[0].typename "\"TcpGenericServerApp\""
param **.sink_152.app[0].localAddress "\"\""
param **.sink_152.app[0].localPort 1100
param **.sink_152.app[0].replyDelay 0s
param **.sink_153.numApps 1
param **.sink_153.app[0].typename "\"TcpGenericServerApp\""
param **.sink_153.app[0].localAddress "\"\""
param **.sink_153.app[0].localPort 1100
param **.sink_153.app[0].replyDelay 0s
param **.sink_154.numApps 1
param **.sink_154.app[0].typename "\"TcpGenericServerApp\""
param **.sink_154.app[0].localAddress "\"\""
param **.sink_154.app[0].localPort 1100
param **.sink_154.app[0].replyDelay 0s
param **.sink_155.numApps 1
param **.sink_155.app[0].typename "\"TcpGenericServerApp\""
param **.sink_155.app[0].localAddress "\"\""
param **.sink_155.app[0].localPort 1100
param **.sink_155.app[0].replyDelay 0s
param **.sink_156.numApps 1
param **.sink_156.app[0].typename "\"TcpGenericServerApp\""
param **.sink_156.app[0].localAddress "\"\""
param **.sink_156.app[0].localPort 1100
param **.sink_156.app[0].replyDelay 0s
param **.sink_157.numApps 1
param **.sink_157.app[0].typename "\"TcpGenericServerApp\""
param **.sink_157.app[0].localAddress "\"\""
param **.sink_157.app[0].localPort 1100
param **.sink_157.app[0].replyDelay 0s
param **.sink_158.numApps 1
param **.sink_158.app[0].typename "\"TcpGenericServerApp\""
param **.sink_158.app[0].localAddress "\"\""
param **.sink_158.app[0].localPort 1100
param **.sink_158.app[0].replyDelay 0s
param **.sink_159.numApps 1
param **.sink_159.app[0].typename "\"TcpGenericServerApp\""
param **.sink_159.app[0].localAddress "\"\""
param **.sink_159.app[0].localPort 1100
param **.sink_159.app[0].replyDelay 0s
param **.sink_160.numApps 1
param **.sink_160.app[0].typename "\"TcpGenericServerApp\""
param **.sink_160.app[0].localAddress "\"\""
param **.sink_160.app[0].localPort 1100
param **.sink_160.app[0].replyDelay 0s
param **.sink_161.numApps 1
param **.sink_161.app[0].typename "\"TcpGenericServerApp\""
param **.sink_161.app[0].localAddress "\"\""
param **.sink_161.app[0].localPort 1100
param **.sink_161.app[0].replyDelay 0s
param **.sink_162.numApps 1
param **.sink_162.app[0].typename "\"TcpGenericServerApp\""
param **.sink_162.app[0].localAddress "\"\""
param **.sink_162.app[0].localPort 1100
param **.sink_162.app[0].replyDelay 0s
param **.sink_163.numApps 1
param **.sink_163.app[0].typename "\"TcpGenericServerApp\""
param **.sink_163.app[0].localAddress "\"\""
param **.sink_163.app[0].localPort 1100
param **.sink_163.app[0].replyDelay 0s
param **.sink_164.numApps 1
param **.sink_164.app[0].typename "\"TcpGenericServerApp\""
param **.sink_164.app[0].localAddress "\"\""
param **.sink_164.app[0].localPort 1100
param **.sink_164.app[0].replyDelay 0s
param **.sink_165.numApps 1
param **.sink_165.app[0].typename "\"TcpGenericServerApp\""
param **.sink_165.app[0].localAddress "\"\""
param **.sink_165.app[0].localPort 1100
param **.sink_165.app[0].replyDelay 0s
param **.sink_166.numApps 1
param **.sink_166.app[0].typename "\"TcpGenericServerApp\""
param **.sink_166.app[0].localAddress "\"\""
param **.sink_166.app[0].localPort 1100
param **.sink_166.app[0].replyDelay 0s
param **.sink_167.numApps 1
param **.sink_167.app[0].typename "\"TcpGenericServerApp\""
param **.sink_167.app[0].localAddress "\"\""
param **.sink_167.app[0].localPort 1100
param **.sink_167.app[0].replyDelay 0s
param **.sink_168.numApps 1
param **.sink_168.app[0].typename "\"TcpGenericServerApp\""
param **.sink_168.app[0].localAddress "\"\""
param **.sink_168.app[0].localPort 1100
param **.sink_168.app[0].replyDelay 0s
param **.sink_169.numApps 1
param **.sink_169.app[0].typename "\"TcpGenericServerApp\""
param **.sink_169.app[0].localAddress "\"\""
param **.sink_169.app[0].localPort 1100
param **.sink_169.app[0].replyDelay 0s
param **.sink_170.numApps 1
param **.sink_170.app[0].typename "\"TcpGenericServerApp\""
param **.sink_170.app[0].localAddress "\"\""
param **.sink_170.app[0].localPort 1100
param **.sink_170.app[0].replyDelay 0s
param **.sink_171.numApps 1
param **.sink_171.app[0].typename "\"TcpGenericServerApp\""
param **.sink_171.app[0].localAddress "\"\""
param **.sink_171.app[0].localPort 1100
param **.sink_171.app[0].replyDelay 0s
param **.sink_172.numApps 1
param **.sink_172.app[0].typename "\"TcpGenericServerApp\""
param **.sink_172.app[0].localAddress "\"\""
param **.sink_172.app[0].localPort 1100
param **.sink_172.app[0].replyDelay 0s
param **.sink_173.numApps 1
param **.sink_173.app[0].typename "\"TcpGenericServerApp\""
param **.sink_173.app[0].localAddress "\"\""
param **.sink_173.app[0].localPort 1100
param **.sink_173.app[0].replyDelay 0s
param **.sink_174.numApps 1
param **.sink_174.app[0].typename "\"TcpGenericServerApp\""
param **.sink_174.app[0].localAddress "\"\""
param **.sink_174.app[0].localPort 1100
param **.sink_174.app[0].replyDelay 0s
param **.sink_175.numApps 1
param **.sink_175.app[0].typename "\"TcpGenericServerApp\""
param **.sink_175.app[0].localAddress "\"\""
param **.sink_175.app[0].localPort 1100
param **.sink_175.app[0].replyDelay 0s
param **.sink_176.numApps 1
param **.sink_176.app[0].typename "\"TcpGenericServerApp\""
param **.sink_176.app[0].localAddress "\"\""
param **.sink_176.app[0].localPort 1100
param **.sink_176.app[0].replyDelay 0s
param **.sink_177.numApps 1
param **.sink_177.app[0].typename "\"TcpGenericServerApp\""
param **.sink_177.app[0].localAddress "\"\""
param **.sink_177.app[0].localPort 1100
param **.sink_177.app[0].replyDelay 0s
param **.sink_178.numApps 1
param **.sink_178.app[0].typename "\"TcpGenericServerApp\""
param **.sink_178.app[0].localAddress "\"\""
param **.sink_178.app[0].localPort 1100
param **.sink_178.app[0].replyDelay 0s
param **.sink_179.numApps 1
param **.sink_179.app[0].typename "\"TcpGenericServerApp\""
param **.sink_179.app[0].localAddress "\"\""
param **.sink_179.app[0].localPort 1100
param **.sink_179.app[0].replyDelay 0s
param **.sink_180.numApps 1
param **.sink_180.app[0].typename "\"TcpGenericServerApp\""
param **.sink_180.app[0].localAddress "\"\""
param **.sink_180.app[0].localPort 1100
param **.sink_180.app[0].replyDelay 0s
param **.sink_181.numApps 1
param **.sink_181.app[0].typename "\"TcpGenericServerApp\""
param **.sink_181.app[0].localAddress "\"\""
param **.sink_181.app[0].localPort 1100
param **.sink_181.app[0].replyDelay 0s
param **.sink_182.numApps 1
param **.sink_182.app[0].typename "\"TcpGenericServerApp\""
param **.sink_182.app[0].localAddress "\"\""
param **.sink_182.app[0].localPort 1100
param **.sink_182.app[0].replyDelay 0s
param **.sink_183.numApps 1
param **.sink_183.app[0].typename "\"TcpGenericServerApp\""
param **.sink_183.app[0].localAddress "\"\""
param **.sink_183.app[0].localPort 1100
param **.sink_183.app[0].replyDelay 0s
param **.sink_184.numApps 1
param **.sink_184.app[0].typename "\"TcpGenericServerApp\""
param **.sink_184.app[0].localAddress "\"\""
param **.sink_184.app[0].localPort 1100
param **.sink_184.app[0].replyDelay 0s
param **.sink_185.numApps 1
param **.sink_185.app[0].typename "\"TcpGenericServerApp\""
param **.sink_185.app[0].localAddress "\"\""
param **.sink_185.app[0].localPort 1100
param **.sink_185.app[0].replyDelay 0s
param **.sink_186.numApps 1
param **.sink_186.app[0].typename "\"TcpGenericServerApp\""
param **.sink_186.app[0].localAddress "\"\""
param **.sink_186.app[0].localPort 1100
param **.sink_186.app[0].replyDelay 0s
param **.sink_187.numApps 1
param **.sink_187.app[0].typename "\"TcpGenericServerApp\""
param **.sink_187.app[0].localAddress "\"\""
param **.sink_187.app[0].localPort 1100
param **.sink_187.app[0].replyDelay 0s
param **.sink_188.numApps 1
param **.sink_188.app[0].typename "\"TcpGenericServerApp\""
param **.sink_188.app[0].localAddress "\"\""
param **.sink_188.app[0].localPort 1100
param **.sink_188.app[0].replyDelay 0s
param **.sink_189.numApps 1
param **.sink_189.app[0].typename "\"TcpGenericServerApp\""
param **.sink_189.app[0].localAddress "\"\""
param **.sink_189.app[0].localPort 1100
param **.sink_189.app[0].replyDelay 0s
param **.sink_190.numApps 1
param **.sink_190.app[0].typename "\"TcpGenericServerApp\""
param **.sink_190.app[0].localAddress "\"\""
param **.sink_190.app[0].localPort 1100
param **.sink_190.app[0].replyDelay 0s
param **.sink_191.numApps 1
param **.sink_191.app[0].typename "\"TcpGenericServerApp\""
param **.sink_191.app[0].localAddress "\"\""
param **.sink_191.app[0].localPort 1100
param **.sink_191.app[0].replyDelay 0s
param **.sink_192.numApps 1
param **.sink_192.app[0].typename "\"TcpGenericServerApp\""
param **.sink_192.app[0].localAddress "\"\""
param **.sink_192.app[0].localPort 1100
param **.sink_192.app[0].replyDelay 0s
param **.sink_193.numApps 1
param **.sink_193.app[0].typename "\"TcpGenericServerApp\""
param **.sink_193.app[0].localAddress "\"\""
param **.sink_193.app[0].localPort 1100
param **.sink_193.app[0].replyDelay 0s
param **.sink_194.numApps 1
param **.sink_194.app[0].typename "\"TcpGenericServerApp\""
param **.sink_194.app[0].localAddress "\"\""
param **.sink_194.app[0].localPort 1100
param **.sink_194.app[0].replyDelay 0s
param **.sink_195.numApps 1
param **.sink_195.app[0].typename "\"TcpGenericServerApp\""
param **.sink_195.app[0].localAddress "\"\""
param **.sink_195.app[0].localPort 1100
param **.sink_195.app[0].replyDelay 0s
param **.sink_196.numApps 1
param **.sink_196.app[0].typename "\"TcpGenericServerApp\""
param **.sink_196.app[0].localAddress "\"\""
param **.sink_196.app[0].localPort 1100
param **.sink_196.app[0].replyDelay 0s
param **.sink_197.numApps 1
param **.sink_197.app[0].typename "\"TcpGenericServerApp\""
param **.sink_197.app[0].localAddress "\"\""
param **.sink_197.app[0].localPort 1100
param **.sink_197.app[0].replyDelay 0s
param **.sink_198.numApps 1
param **.sink_198.app[0].typename "\"TcpGenericServerApp\""
param **.sink_198.app[0].localAddress "\"\""
param **.sink_198.app[0].localPort 1100
param **.sink_198.app[0].replyDelay 0s
param **.sink_199.numApps 1
param **.sink_199.app[0].typename "\"TcpGenericServerApp\""
param **.sink_199.app[0].localAddress "\"\""
param **.sink_199.app[0].localPort 1100
param **.sink_199.app[0].replyDelay 0s
param **.sink_200.numApps 1
param **.sink_200.app[0].typename "\"TcpGenericServerApp\""
param **.sink_200.app[0].localAddress "\"\""
param **.sink_200.app[0].localPort 1100
param **.sink_200.app[0].replyDelay 0s
param **.sink_201.numApps 1
param **.sink_201.app[0].typename "\"TcpGenericServerApp\""
param **.sink_201.app[0].localAddress "\"\""
param **.sink_201.app[0].localPort 1100
param **.sink_201.app[0].replyDelay 0s
param **.sink_202.numApps 1
param **.sink_202.app[0].typename "\"TcpGenericServerApp\""
param **.sink_202.app[0].localAddress "\"\""
param **.sink_202.app[0].localPort 1100
param **.sink_202.app[0].replyDelay 0s
param **.sink_203.numApps 1
param **.sink_203.app[0].typename "\"TcpGenericServerApp\""
param **.sink_203.app[0].localAddress "\"\""
param **.sink_203.app[0].localPort 1100
param **.sink_203.app[0].replyDelay 0s
param **.sink_204.numApps 1
param **.sink_204.app[0].typename "\"TcpGenericServerApp\""
param **.sink_204.app[0].localAddress "\"\""
param **.sink_204.app[0].localPort 1100
param **.sink_204.app[0].replyDelay 0s
param **.sink_205.numApps 1
param **.sink_205.app[0].typename "\"TcpGenericServerApp\""
param **.sink_205.app[0].localAddress "\"\""
param **.sink_205.app[0].localPort 1100
param **.sink_205.app[0].replyDelay 0s
param **.sink_206.numApps 1
param **.sink_206.app[0].typename "\"TcpGenericServerApp\""
param **.sink_206.app[0].localAddress "\"\""
param **.sink_206.app[0].localPort 1100
param **.sink_206.app[0].replyDelay 0s
param **.sink_207.numApps 1
param **.sink_207.app[0].typename "\"TcpGenericServerApp\""
param **.sink_207.app[0].localAddress "\"\""
param **.sink_207.app[0].localPort 1100
param **.sink_207.app[0].replyDelay 0s
param **.sink_208.numApps 1
param **.sink_208.app[0].typename "\"TcpGenericServerApp\""
param **.sink_208.app[0].localAddress "\"\""
param **.sink_208.app[0].localPort 1100
param **.sink_208.app[0].replyDelay 0s
param **.sink_209.numApps 1
param **.sink_209.app[0].typename "\"TcpGenericServerApp\""
param **.sink_209.app[0].localAddress "\"\""
param **.sink_209.app[0].localPort 1100
param **.sink_209.app[0].replyDelay 0s
param **.sink_210.numApps 1
param **.sink_210.app[0].typename "\"TcpGenericServerApp\""
param **.sink_210.app[0].localAddress "\"\""
param **.sink_210.app[0].localPort 1100
param **.sink_210.app[0].replyDelay 0s
param **.sink_211.numApps 1
param **.sink_211.app[0].typename "\"TcpGenericServerApp\""
param **.sink_211.app[0].localAddress "\"\""
param **.sink_211.app[0].localPort 1100
param **.sink_211.app[0].replyDelay 0s
param **.sink_212.numApps 1
param **.sink_212.app[0].typename "\"TcpGenericServerApp\""
param **.sink_212.app[0].localAddress "\"\""
param **.sink_212.app[0].localPort 1100
param **.sink_212.app[0].replyDelay 0s
param **.sink_213.numApps 1
param **.sink_213.app[0].typename "\"TcpGenericServerApp\""
param **.sink_213.app[0].localAddress "\"\""
param **.sink_213.app[0].localPort 1100
param **.sink_213.app[0].replyDelay 0s
param **.sink_214.numApps 1
param **.sink_214.app[0].typename "\"TcpGenericServerApp\""
param **.sink_214.app[0].localAddress "\"\""
param **.sink_214.app[0].localPort 1100
param **.sink_214.app[0].replyDelay 0s
param **.sink_215.numApps 1
param **.sink_215.app[0].typename "\"TcpGenericServerApp\""
param **.sink_215.app[0].localAddress "\"\""
param **.sink_215.app[0].localPort 1100
param **.sink_215.app[0].replyDelay 0s
param **.sink_216.numApps 1
param **.sink_216.app[0].typename "\"TcpGenericServerApp\""
param **.sink_216.app[0].localAddress "\"\""
param **.sink_216.app[0].localPort 1100
param **.sink_216.app[0].replyDelay 0s
param **.sink_217.numApps 1
param **.sink_217.app[0].typename "\"TcpGenericServerApp\""
param **.sink_217.app[0].localAddress "\"\""
param **.sink_217.app[0].localPort 1100
param **.sink_217.app[0].replyDelay 0s
param **.sink_218.numApps 1
param **.sink_218.app[0].typename "\"TcpGenericServerApp\""
param **.sink_218.app[0].localAddress "\"\""
param **.sink_218.app[0].localPort 1100
param **.sink_218.app[0].replyDelay 0s
param **.sink_219.numApps 1
param **.sink_219.app[0].typename "\"TcpGenericServerApp\""
param **.sink_219.app[0].localAddress "\"\""
param **.sink_219.app[0].localPort 1100
param **.sink_219.app[0].replyDelay 0s
param **.sink_220.numApps 1
param **.sink_220.app[0].typename "\"TcpGenericServerApp\""
param **.sink_220.app[0].localAddress "\"\""
param **.sink_220.app[0].localPort 1100
param **.sink_220.app[0].replyDelay 0s
param **.sink_221.numApps 1
param **.sink_221.app[0].typename "\"TcpGenericServerApp\""
param **.sink_221.app[0].localAddress "\"\""
param **.sink_221.app[0].localPort 1100
param **.sink_221.app[0].replyDelay 0s
param **.sink_222.numApps 1
param **.sink_222.app[0].typename "\"TcpGenericServerApp\""
param **.sink_222.app[0].localAddress "\"\""
param **.sink_222.app[0].localPort 1100
param **.sink_222.app[0].replyDelay 0s
param **.sink_223.numApps 1
param **.sink_223.app[0].typename "\"TcpGenericServerApp\""
param **.sink_223.app[0].localAddress "\"\""
param **.sink_223.app[0].localPort 1100
param **.sink_223.app[0].replyDelay 0s
param **.sink_224.numApps 1
param **.sink_224.app[0].typename "\"TcpGenericServerApp\""
param **.sink_224.app[0].localAddress "\"\""
param **.sink_224.app[0].localPort 1100
param **.sink_224.app[0].replyDelay 0s
param **.sink_225.numApps 1
param **.sink_225.app[0].typename "\"TcpGenericServerApp\""
param **.sink_225.app[0].localAddress "\"\""
param **.sink_225.app[0].localPort 1100
param **.sink_225.app[0].replyDelay 0s
param **.sink_226.numApps 1
param **.sink_226.app[0].typename "\"TcpGenericServerApp\""
param **.sink_226.app[0].localAddress "\"\""
param **.sink_226.app[0].localPort 1100
param **.sink_226.app[0].replyDelay 0s
param **.sink_227.numApps 1
param **.sink_227.app[0].typename "\"TcpGenericServerApp\""
param **.sink_227.app[0].localAddress "\"\""
param **.sink_227.app[0].localPort 1100
param **.sink_227.app[0].replyDelay 0s
param **.sink_228.numApps 1
param **.sink_228.app[0].typename "\"TcpGenericServerApp\""
param **.sink_228.app[0].localAddress "\"\""
param **.sink_228.app[0].localPort 1100
param **.sink_228.app[0].replyDelay 0s
param **.sink_229.numApps 1
param **.sink_229.app[0].typename "\"TcpGenericServerApp\""
param **.sink_229.app[0].localAddress "\"\""
param **.sink_229.app[0].localPort 1100
param **.sink_229.app[0].replyDelay 0s
param **.sink_230.numApps 1
param **.sink_230.app[0].typename "\"TcpGenericServerApp\""
param **.sink_230.app[0].localAddress "\"\""
param **.sink_230.app[0].localPort 1100
param **.sink_230.app[0].replyDelay 0s
param **.sink_231.numApps 1
param **.sink_231.app[0].typename "\"TcpGenericServerApp\""
param **.sink_231.app[0].localAddress "\"\""
param **.sink_231.app[0].localPort 1100
param **.sink_231.app[0].replyDelay 0s
param **.sink_232.numApps 1
param **.sink_232.app[0].typename "\"TcpGenericServerApp\""
param **.sink_232.app[0].localAddress "\"\""
param **.sink_232.app[0].localPort 1100
param **.sink_232.app[0].replyDelay 0s
param **.sink_233.numApps 1
param **.sink_233.app[0].typename "\"TcpGenericServerApp\""
param **.sink_233.app[0].localAddress "\"\""
param **.sink_233.app[0].localPort 1100
param **.sink_233.app[0].replyDelay 0s
param **.sink_234.numApps 1
param **.sink_234.app[0].typename "\"TcpGenericServerApp\""
param **.sink_234.app[0].localAddress "\"\""
param **.sink_234.app[0].localPort 1100
param **.sink_234.app[0].replyDelay 0s
param **.sink_235.numApps 1
param **.sink_235.app[0].typename "\"TcpGenericServerApp\""
param **.sink_235.app[0].localAddress "\"\""
param **.sink_235.app[0].localPort 1100
param **.sink_235.app[0].replyDelay 0s
param **.sink_236.numApps 1
param **.sink_236.app[0].typename "\"TcpGenericServerApp\""
param **.sink_236.app[0].localAddress "\"\""
param **.sink_236.app[0].localPort 1100
param **.sink_236.app[0].replyDelay 0s
param **.sink_237.numApps 1
param **.sink_237.app[0].typename "\"TcpGenericServerApp\""
param **.sink_237.app[0].localAddress "\"\""
param **.sink_237.app[0].localPort 1100
param **.sink_237.app[0].replyDelay 0s
param **.sink_238.numApps 1
param **.sink_238.app[0].typename "\"TcpGenericServerApp\""
param **.sink_238.app[0].localAddress "\"\""
param **.sink_238.app[0].localPort 1100
param **.sink_238.app[0].replyDelay 0s
param **.sink_239.numApps 1
param **.sink_239.app[0].typename "\"TcpGenericServerApp\""
param **.sink_239.app[0].localAddress "\"\""
param **.sink_239.app[0].localPort 1100
param **.sink_239.app[0].replyDelay 0s
param **.sink_240.numApps 1
param **.sink_240.app[0].typename "\"TcpGenericServerApp\""
param **.sink_240.app[0].localAddress "\"\""
param **.sink_240.app[0].localPort 1100
param **.sink_240.app[0].replyDelay 0s
param **.sink_241.numApps 1
param **.sink_241.app[0].typename "\"TcpGenericServerApp\""
param **.sink_241.app[0].localAddress "\"\""
param **.sink_241.app[0].localPort 1100
param **.sink_241.app[0].replyDelay 0s
param **.sink_242.numApps 1
param **.sink_242.app[0].typename "\"TcpGenericServerApp\""
param **.sink_242.app[0].localAddress "\"\""
param **.sink_242.app[0].localPort 1100
param **.sink_242.app[0].replyDelay 0s
param **.sink_243.numApps 1
param **.sink_243.app[0].typename "\"TcpGenericServerApp\""
param **.sink_243.app[0].localAddress "\"\""
param **.sink_243.app[0].localPort 1100
param **.sink_243.app[0].replyDelay 0s
param **.sink_244.numApps 1
param **.sink_244.app[0].typename "\"TcpGenericServerApp\""
param **.sink_244.app[0].localAddress "\"\""
param **.sink_244.app[0].localPort 1100
param **.sink_244.app[0].replyDelay 0s
param **.sink_245.numApps 1
param **.sink_245.app[0].typename "\"TcpGenericServerApp\""
param **.sink_245.app[0].localAddress "\"\""
param **.sink_245.app[0].localPort 1100
param **.sink_245.app[0].replyDelay 0s
param **.sink_246.numApps 1
param **.sink_246.app[0].typename "\"TcpGenericServerApp\""
param **.sink_246.app[0].localAddress "\"\""
param **.sink_246.app[0].localPort 1100
param **.sink_246.app[0].replyDelay 0s
param **.sink_247.numApps 1
param **.sink_247.app[0].typename "\"TcpGenericServerApp\""
param **.sink_247.app[0].localAddress "\"\""
param **.sink_247.app[0].localPort 1100
param **.sink_247.app[0].replyDelay 0s
param **.sink_248.numApps 1
param **.sink_248.app[0].typename "\"TcpGenericServerApp\""
param **.sink_248.app[0].localAddress "\"\""
param **.sink_248.app[0].localPort 1100
param **.sink_248.app[0].replyDelay 0s
param **.sink_249.numApps 1
param **.sink_249.app[0].typename "\"TcpGenericServerApp\""
param **.sink_249.app[0].localAddress "\"\""
param **.sink_249.app[0].localPort 1100
param **.sink_249.app[0].replyDelay 0s
param **.sink_250.numApps 1
param **.sink_250.app[0].typename "\"TcpGenericServerApp\""
param **.sink_250.app[0].localAddress "\"\""
param **.sink_250.app[0].localPort 1100
param **.sink_250.app[0].replyDelay 0s
param **.sink_251.numApps 1
param **.sink_251.app[0].typename "\"TcpGenericServerApp\""
param **.sink_251.app[0].localAddress "\"\""
param **.sink_251.app[0].localPort 1100
param **.sink_251.app[0].replyDelay 0s
param **.sink_252.numApps 1
param **.sink_252.app[0].typename "\"TcpGenericServerApp\""
param **.sink_252.app[0].localAddress "\"\""
param **.sink_252.app[0].localPort 1100
param **.sink_252.app[0].replyDelay 0s
param **.sink_253.numApps 1
param **.sink_253.app[0].typename "\"TcpGenericServerApp\""
param **.sink_253.app[0].localAddress "\"\""
param **.sink_253.app[0].localPort 1100
param **.sink_253.app[0].replyDelay 0s
param **.sink_254.numApps 1
param **.sink_254.app[0].typename "\"TcpGenericServerApp\""
param **.sink_254.app[0].localAddress "\"\""
param **.sink_254.app[0].localPort 1100
param **.sink_254.app[0].replyDelay 0s
param **.sink_255.numApps 1
param **.sink_255.app[0].typename "\"TcpGenericServerApp\""
param **.sink_255.app[0].localAddress "\"\""
param **.sink_255.app[0].localPort 1100
param **.sink_255.app[0].replyDelay 0s
param **.sink_256.numApps 1
param **.sink_256.app[0].typename "\"TcpGenericServerApp\""
param **.sink_256.app[0].localAddress "\"\""
param **.sink_256.app[0].localPort 1100
param **.sink_256.app[0].replyDelay 0s
param **.sink_257.numApps 1
param **.sink_257.app[0].typename "\"TcpGenericServerApp\""
param **.sink_257.app[0].localAddress "\"\""
param **.sink_257.app[0].localPort 1100
param **.sink_257.app[0].replyDelay 0s
param **.sink_258.numApps 1
param **.sink_258.app[0].typename "\"TcpGenericServerApp\""
param **.sink_258.app[0].localAddress "\"\""
param **.sink_258.app[0].localPort 1100
param **.sink_258.app[0].replyDelay 0s
param **.sink_259.numApps 1
param **.sink_259.app[0].typename "\"TcpGenericServerApp\""
param **.sink_259.app[0].localAddress "\"\""
param **.sink_259.app[0].localPort 1100
param **.sink_259.app[0].replyDelay 0s
param **.sink_260.numApps 1
param **.sink_260.app[0].typename "\"TcpGenericServerApp\""
param **.sink_260.app[0].localAddress "\"\""
param **.sink_260.app[0].localPort 1100
param **.sink_260.app[0].replyDelay 0s
param **.sink_261.numApps 1
param **.sink_261.app[0].typename "\"TcpGenericServerApp\""
param **.sink_261.app[0].localAddress "\"\""
param **.sink_261.app[0].localPort 1100
param **.sink_261.app[0].replyDelay 0s
param **.sink_262.numApps 1
param **.sink_262.app[0].typename "\"TcpGenericServerApp\""
param **.sink_262.app[0].localAddress "\"\""
param **.sink_262.app[0].localPort 1100
param **.sink_262.app[0].replyDelay 0s
param **.sink_263.numApps 1
param **.sink_263.app[0].typename "\"TcpGenericServerApp\""
param **.sink_263.app[0].localAddress "\"\""
param **.sink_263.app[0].localPort 1100
param **.sink_263.app[0].replyDelay 0s
param **.sink_264.numApps 1
param **.sink_264.app[0].typename "\"TcpGenericServerApp\""
param **.sink_264.app[0].localAddress "\"\""
param **.sink_264.app[0].localPort 1100
param **.sink_264.app[0].replyDelay 0s
param **.sink_265.numApps 1
param **.sink_265.app[0].typename "\"TcpGenericServerApp\""
param **.sink_265.app[0].localAddress "\"\""
param **.sink_265.app[0].localPort 1100
param **.sink_265.app[0].replyDelay 0s
param **.sink_266.numApps 1
param **.sink_266.app[0].typename "\"TcpGenericServerApp\""
param **.sink_266.app[0].localAddress "\"\""
param **.sink_266.app[0].localPort 1100
param **.sink_266.app[0].replyDelay 0s
param **.sink_267.numApps 1
param **.sink_267.app[0].typename "\"TcpGenericServerApp\""
param **.sink_267.app[0].localAddress "\"\""
param **.sink_267.app[0].localPort 1100
param **.sink_267.app[0].replyDelay 0s
param **.sink_268.numApps 1
param **.sink_268.app[0].typename "\"TcpGenericServerApp\""
param **.sink_268.app[0].localAddress "\"\""
param **.sink_268.app[0].localPort 1100
param **.sink_268.app[0].replyDelay 0s
param **.sink_269.numApps 1
param **.sink_269.app[0].typename "\"TcpGenericServerApp\""
param **.sink_269.app[0].localAddress "\"\""
param **.sink_269.app[0].localPort 1100
param **.sink_269.app[0].replyDelay 0s
param **.sink_270.numApps 1
param **.sink_270.app[0].typename "\"TcpGenericServerApp\""
param **.sink_270.app[0].localAddress "\"\""
param **.sink_270.app[0].localPort 1100
param **.sink_270.app[0].replyDelay 0s
param **.sink_271.numApps 1
param **.sink_271.app[0].typename "\"TcpGenericServerApp\""
param **.sink_271.app[0].localAddress "\"\""
param **.sink_271.app[0].localPort 1100
param **.sink_271.app[0].replyDelay 0s
param **.sink_272.numApps 1
param **.sink_272.app[0].typename "\"TcpGenericServerApp\""
param **.sink_272.app[0].localAddress "\"\""
param **.sink_272.app[0].localPort 1100
param **.sink_272.app[0].replyDelay 0s
param **.sink_273.numApps 1
param **.sink_273.app[0].typename "\"TcpGenericServerApp\""
param **.sink_273.app[0].localAddress "\"\""
param **.sink_273.app[0].localPort 1100
param **.sink_273.app[0].replyDelay 0s
param **.sink_274.numApps 1
param **.sink_274.app[0].typename "\"TcpGenericServerApp\""
param **.sink_274.app[0].localAddress "\"\""
param **.sink_274.app[0].localPort 1100
param **.sink_274.app[0].replyDelay 0s
param **.sink_275.numApps 1
param **.sink_275.app[0].typename "\"TcpGenericServerApp\""
param **.sink_275.app[0].localAddress "\"\""
param **.sink_275.app[0].localPort 1100
param **.sink_275.app[0].replyDelay 0s
param **.sink_276.numApps 1
param **.sink_276.app[0].typename "\"TcpGenericServerApp\""
param **.sink_276.app[0].localAddress "\"\""
param **.sink_276.app[0].localPort 1100
param **.sink_276.app[0].replyDelay 0s
param **.sink_277.numApps 1
param **.sink_277.app[0].typename "\"TcpGenericServerApp\""
param **.sink_277.app[0].localAddress "\"\""
param **.sink_277.app[0].localPort 1100
param **.sink_277.app[0].replyDelay 0s
param **.sink_278.numApps 1
param **.sink_278.app[0].typename "\"TcpGenericServerApp\""
param **.sink_278.app[0].localAddress "\"\""
param **.sink_278.app[0].localPort 1100
param **.sink_278.app[0].replyDelay 0s
param **.sink_279.numApps 1
param **.sink_279.app[0].typename "\"TcpGenericServerApp\""
param **.sink_279.app[0].localAddress "\"\""
param **.sink_279.app[0].localPort 1100
param **.sink_279.app[0].replyDelay 0s
param **.sink_280.numApps 1
param **.sink_280.app[0].typename "\"TcpGenericServerApp\""
param **.sink_280.app[0].localAddress "\"\""
param **.sink_280.app[0].localPort 1100
param **.sink_280.app[0].replyDelay 0s
param **.sink_281.numApps 1
param **.sink_281.app[0].typename "\"TcpGenericServerApp\""
param **.sink_281.app[0].localAddress "\"\""
param **.sink_281.app[0].localPort 1100
param **.sink_281.app[0].replyDelay 0s
param **.sink_282.numApps 1
param **.sink_282.app[0].typename "\"TcpGenericServerApp\""
param **.sink_282.app[0].localAddress "\"\""
param **.sink_282.app[0].localPort 1100
param **.sink_282.app[0].replyDelay 0s
param **.sink_283.numApps 1
param **.sink_283.app[0].typename "\"TcpGenericServerApp\""
param **.sink_283.app[0].localAddress "\"\""
param **.sink_283.app[0].localPort 1100
param **.sink_283.app[0].replyDelay 0s
param **.sink_284.numApps 1
param **.sink_284.app[0].typename "\"TcpGenericServerApp\""
param **.sink_284.app[0].localAddress "\"\""
param **.sink_284.app[0].localPort 1100
param **.sink_284.app[0].replyDelay 0s
param **.sink_285.numApps 1
param **.sink_285.app[0].typename "\"TcpGenericServerApp\""
param **.sink_285.app[0].localAddress "\"\""
param **.sink_285.app[0].localPort 1100
param **.sink_285.app[0].replyDelay 0s
param **.sink_286.numApps 1
param **.sink_286.app[0].typename "\"TcpGenericServerApp\""
param **.sink_286.app[0].localAddress "\"\""
param **.sink_286.app[0].localPort 1100
param **.sink_286.app[0].replyDelay 0s
param **.sink_287.numApps 1
param **.sink_287.app[0].typename "\"TcpGenericServerApp\""
param **.sink_287.app[0].localAddress "\"\""
param **.sink_287.app[0].localPort 1100
param **.sink_287.app[0].replyDelay 0s
param **.sink_288.numApps 1
param **.sink_288.app[0].typename "\"TcpGenericServerApp\""
param **.sink_288.app[0].localAddress "\"\""
param **.sink_288.app[0].localPort 1100
param **.sink_288.app[0].replyDelay 0s
param **.sink_289.numApps 1
param **.sink_289.app[0].typename "\"TcpGenericServerApp\""
param **.sink_289.app[0].localAddress "\"\""
param **.sink_289.app[0].localPort 1100
param **.sink_289.app[0].replyDelay 0s
param **.sink_290.numApps 1
param **.sink_290.app[0].typename "\"TcpGenericServerApp\""
param **.sink_290.app[0].localAddress "\"\""
param **.sink_290.app[0].localPort 1100
param **.sink_290.app[0].replyDelay 0s
param **.sink_291.numApps 1
param **.sink_291.app[0].typename "\"TcpGenericServerApp\""
param **.sink_291.app[0].localAddress "\"\""
param **.sink_291.app[0].localPort 1100
param **.sink_291.app[0].replyDelay 0s
param **.sink_292.numApps 1
param **.sink_292.app[0].typename "\"TcpGenericServerApp\""
param **.sink_292.app[0].localAddress "\"\""
param **.sink_292.app[0].localPort 1100
param **.sink_292.app[0].replyDelay 0s
param **.sink_293.numApps 1
param **.sink_293.app[0].typename "\"TcpGenericServerApp\""
param **.sink_293.app[0].localAddress "\"\""
param **.sink_293.app[0].localPort 1100
param **.sink_293.app[0].replyDelay 0s
param **.sink_294.numApps 1
param **.sink_294.app[0].typename "\"TcpGenericServerApp\""
param **.sink_294.app[0].localAddress "\"\""
param **.sink_294.app[0].localPort 1100
param **.sink_294.app[0].replyDelay 0s
param **.sink_295.numApps 1
param **.sink_295.app[0].typename "\"TcpGenericServerApp\""
param **.sink_295.app[0].localAddress "\"\""
param **.sink_295.app[0].localPort 1100
param **.sink_295.app[0].replyDelay 0s
param **.sink_296.numApps 1
param **.sink_296.app[0].typename "\"TcpGenericServerApp\""
param **.sink_296.app[0].localAddress "\"\""
param **.sink_296.app[0].localPort 1100
param **.sink_296.app[0].replyDelay 0s
param **.sink_297.numApps 1
param **.sink_297.app[0].typename "\"TcpGenericServerApp\""
param **.sink_297.app[0].localAddress "\"\""
param **.sink_297.app[0].localPort 1100
param **.sink_297.app[0].replyDelay 0s
param **.sink_298.numApps 1
param **.sink_298.app[0].typename "\"TcpGenericServerApp\""
param **.sink_298.app[0].localAddress "\"\""
param **.sink_298.app[0].localPort 1100
param **.sink_298.app[0].replyDelay 0s
param **.sink_299.numApps 1
param **.sink_299.app[0].typename "\"TcpGenericServerApp\""
param **.sink_299.app[0].localAddress "\"\""
param **.sink_299.app[0].localPort 1100
param **.sink_299.app[0].replyDelay 0s
param **.sink_300.numApps 1
param **.sink_300.app[0].typename "\"TcpGenericServerApp\""
param **.sink_300.app[0].localAddress "\"\""
param **.sink_300.app[0].localPort 1100
param **.sink_300.app[0].replyDelay 0s
param **.sink_301.numApps 1
param **.sink_301.app[0].typename "\"TcpGenericServerApp\""
param **.sink_301.app[0].localAddress "\"\""
param **.sink_301.app[0].localPort 1100
param **.sink_301.app[0].replyDelay 0s
param **.sink_302.numApps 1
param **.sink_302.app[0].typename "\"TcpGenericServerApp\""
param **.sink_302.app[0].localAddress "\"\""
param **.sink_302.app[0].localPort 1100
param **.sink_302.app[0].replyDelay 0s
param **.sink_303.numApps 1
param **.sink_303.app[0].typename "\"TcpGenericServerApp\""
param **.sink_303.app[0].localAddress "\"\""
param **.sink_303.app[0].localPort 1100
param **.sink_303.app[0].replyDelay 0s
param **.sink_304.numApps 1
param **.sink_304.app[0].typename "\"TcpGenericServerApp\""
param **.sink_304.app[0].localAddress "\"\""
param **.sink_304.app[0].localPort 1100
param **.sink_304.app[0].replyDelay 0s
param **.sink_305.numApps 1
param **.sink_305.app[0].typename "\"TcpGenericServerApp\""
param **.sink_305.app[0].localAddress "\"\""
param **.sink_305.app[0].localPort 1100
param **.sink_305.app[0].replyDelay 0s
param **.sink_306.numApps 1
param **.sink_306.app[0].typename "\"TcpGenericServerApp\""
param **.sink_306.app[0].localAddress "\"\""
param **.sink_306.app[0].localPort 1100
param **.sink_306.app[0].replyDelay 0s
param **.sink_307.numApps 1
param **.sink_307.app[0].typename "\"TcpGenericServerApp\""
param **.sink_307.app[0].localAddress "\"\""
param **.sink_307.app[0].localPort 1100
param **.sink_307.app[0].replyDelay 0s
param **.sink_308.numApps 1
param **.sink_308.app[0].typename "\"TcpGenericServerApp\""
param **.sink_308.app[0].localAddress "\"\""
param **.sink_308.app[0].localPort 1100
param **.sink_308.app[0].replyDelay 0s
param **.sink_309.numApps 1
param **.sink_309.app[0].typename "\"TcpGenericServerApp\""
param **.sink_309.app[0].localAddress "\"\""
param **.sink_309.app[0].localPort 1100
param **.sink_309.app[0].replyDelay 0s
param **.sink_310.numApps 1
param **.sink_310.app[0].typename "\"TcpGenericServerApp\""
param **.sink_310.app[0].localAddress "\"\""
param **.sink_310.app[0].localPort 1100
param **.sink_310.app[0].replyDelay 0s
param **.sink_311.numApps 1
param **.sink_311.app[0].typename "\"TcpGenericServerApp\""
param **.sink_311.app[0].localAddress "\"\""
param **.sink_311.app[0].localPort 1100
param **.sink_311.app[0].replyDelay 0s
param **.sink_312.numApps 1
param **.sink_312.app[0].typename "\"TcpGenericServerApp\""
param **.sink_312.app[0].localAddress "\"\""
param **.sink_312.app[0].localPort 1100
param **.sink_312.app[0].replyDelay 0s
param **.sink_313.numApps 1
param **.sink_313.app[0].typename "\"TcpGenericServerApp\""
param **.sink_313.app[0].localAddress "\"\""
param **.sink_313.app[0].localPort 1100
param **.sink_313.app[0].replyDelay 0s
param **.sink_314.numApps 1
param **.sink_314.app[0].typename "\"TcpGenericServerApp\""
param **.sink_314.app[0].localAddress "\"\""
param **.sink_314.app[0].localPort 1100
param **.sink_314.app[0].replyDelay 0s
param **.sink_315.numApps 1
param **.sink_315.app[0].typename "\"TcpGenericServerApp\""
param **.sink_315.app[0].localAddress "\"\""
param **.sink_315.app[0].localPort 1100
param **.sink_315.app[0].replyDelay 0s
param **.sink_316.numApps 1
param **.sink_316.app[0].typename "\"TcpGenericServerApp\""
param **.sink_316.app[0].localAddress "\"\""
param **.sink_316.app[0].localPort 1100
param **.sink_316.app[0].replyDelay 0s
param **.sink_317.numApps 1
param **.sink_317.app[0].typename "\"TcpGenericServerApp\""
param **.sink_317.app[0].localAddress "\"\""
param **.sink_317.app[0].localPort 1100
param **.sink_317.app[0].replyDelay 0s
param **.sink_318.numApps 1
param **.sink_318.app[0].typename "\"TcpGenericServerApp\""
param **.sink_318.app[0].localAddress "\"\""
param **.sink_318.app[0].localPort 1100
param **.sink_318.app[0].replyDelay 0s
param **.sink_319.numApps 1
param **.sink_319.app[0].typename "\"TcpGenericServerApp\""
param **.sink_319.app[0].localAddress "\"\""
param **.sink_319.app[0].localPort 1100
param **.sink_319.app[0].replyDelay 0s
param **.sink_320.numApps 1
param **.sink_320.app[0].typename "\"TcpGenericServerApp\""
param **.sink_320.app[0].localAddress "\"\""
param **.sink_320.app[0].localPort 1100
param **.sink_320.app[0].replyDelay 0s
param **.sink_321.numApps 1
param **.sink_321.app[0].typename "\"TcpGenericServerApp\""
param **.sink_321.app[0].localAddress "\"\""
param **.sink_321.app[0].localPort 1100
param **.sink_321.app[0].replyDelay 0s
param **.sink_322.numApps 1
param **.sink_322.app[0].typename "\"TcpGenericServerApp\""
param **.sink_322.app[0].localAddress "\"\""
param **.sink_322.app[0].localPort 1100
param **.sink_322.app[0].replyDelay 0s
param **.sink_323.numApps 1
param **.sink_323.app[0].typename "\"TcpGenericServerApp\""
param **.sink_323.app[0].localAddress "\"\""
param **.sink_323.app[0].localPort 1100
param **.sink_323.app[0].replyDelay 0s
param **.sink_324.numApps 1
param **.sink_324.app[0].typename "\"TcpGenericServerApp\""
param **.sink_324.app[0].localAddress "\"\""
param **.sink_324.app[0].localPort 1100
param **.sink_324.app[0].replyDelay 0s
param **.sink_325.numApps 1
param **.sink_325.app[0].typename "\"TcpGenericServerApp\""
param **.sink_325.app[0].localAddress "\"\""
param **.sink_325.app[0].localPort 1100
param **.sink_325.app[0].replyDelay 0s
param **.sink_326.numApps 1
param **.sink_326.app[0].typename "\"TcpGenericServerApp\""
param **.sink_326.app[0].localAddress "\"\""
param **.sink_326.app[0].localPort 1100
param **.sink_326.app[0].replyDelay 0s
param **.sink_327.numApps 1
param **.sink_327.app[0].typename "\"TcpGenericServerApp\""
param **.sink_327.app[0].localAddress "\"\""
param **.sink_327.app[0].localPort 1100
param **.sink_327.app[0].replyDelay 0s
param **.sink_328.numApps 1
param **.sink_328.app[0].typename "\"TcpGenericServerApp\""
param **.sink_328.app[0].localAddress "\"\""
param **.sink_328.app[0].localPort 1100
param **.sink_328.app[0].replyDelay 0s
param **.sink_329.numApps 1
param **.sink_329.app[0].typename "\"TcpGenericServerApp\""
param **.sink_329.app[0].localAddress "\"\""
param **.sink_329.app[0].localPort 1100
param **.sink_329.app[0].replyDelay 0s
param **.sink_330.numApps 1
param **.sink_330.app[0].typename "\"TcpGenericServerApp\""
param **.sink_330.app[0].localAddress "\"\""
param **.sink_330.app[0].localPort 1100
param **.sink_330.app[0].replyDelay 0s
param **.sink_331.numApps 1
param **.sink_331.app[0].typename "\"TcpGenericServerApp\""
param **.sink_331.app[0].localAddress "\"\""
param **.sink_331.app[0].localPort 1100
param **.sink_331.app[0].replyDelay 0s
param **.sink_332.numApps 1
param **.sink_332.app[0].typename "\"TcpGenericServerApp\""
param **.sink_332.app[0].localAddress "\"\""
param **.sink_332.app[0].localPort 1100
param **.sink_332.app[0].replyDelay 0s
param **.sink_333.numApps 1
param **.sink_333.app[0].typename "\"TcpGenericServerApp\""
param **.sink_333.app[0].localAddress "\"\""
param **.sink_333.app[0].localPort 1100
param **.sink_333.app[0].replyDelay 0s
param **.sink_334.numApps 1
param **.sink_334.app[0].typename "\"TcpGenericServerApp\""
param **.sink_334.app[0].localAddress "\"\""
param **.sink_334.app[0].localPort 1100
param **.sink_334.app[0].replyDelay 0s
param **.sink_335.numApps 1
param **.sink_335.app[0].typename "\"TcpGenericServerApp\""
param **.sink_335.app[0].localAddress "\"\""
param **.sink_335.app[0].localPort 1100
param **.sink_335.app[0].replyDelay 0s
param **.sink_336.numApps 1
param **.sink_336.app[0].typename "\"TcpGenericServerApp\""
param **.sink_336.app[0].localAddress "\"\""
param **.sink_336.app[0].localPort 1100
param **.sink_336.app[0].replyDelay 0s
param **.sink_337.numApps 1
param **.sink_337.app[0].typename "\"TcpGenericServerApp\""
param **.sink_337.app[0].localAddress "\"\""
param **.sink_337.app[0].localPort 1100
param **.sink_337.app[0].replyDelay 0s
param **.sink_338.numApps 1
param **.sink_338.app[0].typename "\"TcpGenericServerApp\""
param **.sink_338.app[0].localAddress "\"\""
param **.sink_338.app[0].localPort 1100
param **.sink_338.app[0].replyDelay 0s
param **.sink_339.numApps 1
param **.sink_339.app[0].typename "\"TcpGenericServerApp\""
param **.sink_339.app[0].localAddress "\"\""
param **.sink_339.app[0].localPort 1100
param **.sink_339.app[0].replyDelay 0s
param **.sink_340.numApps 1
param **.sink_340.app[0].typename "\"TcpGenericServerApp\""
param **.sink_340.app[0].localAddress "\"\""
param **.sink_340.app[0].localPort 1100
param **.sink_340.app[0].replyDelay 0s
param **.sink_341.numApps 1
param **.sink_341.app[0].typename "\"TcpGenericServerApp\""
param **.sink_341.app[0].localAddress "\"\""
param **.sink_341.app[0].localPort 1100
param **.sink_341.app[0].replyDelay 0s
param **.sink_342.numApps 1
param **.sink_342.app[0].typename "\"TcpGenericServerApp\""
param **.sink_342.app[0].localAddress "\"\""
param **.sink_342.app[0].localPort 1100
param **.sink_342.app[0].replyDelay 0s
param **.sink_343.numApps 1
param **.sink_343.app[0].typename "\"TcpGenericServerApp\""
param **.sink_343.app[0].localAddress "\"\""
param **.sink_343.app[0].localPort 1100
param **.sink_343.app[0].replyDelay 0s
param **.sink_344.numApps 1
param **.sink_344.app[0].typename "\"TcpGenericServerApp\""
param **.sink_344.app[0].localAddress "\"\""
param **.sink_344.app[0].localPort 1100
param **.sink_344.app[0].replyDelay 0s
param **.sink_345.numApps 1
param **.sink_345.app[0].typename "\"TcpGenericServerApp\""
param **.sink_345.app[0].localAddress "\"\""
param **.sink_345.app[0].localPort 1100
param **.sink_345.app[0].replyDelay 0s
param **.sink_346.numApps 1
param **.sink_346.app[0].typename "\"TcpGenericServerApp\""
param **.sink_346.app[0].localAddress "\"\""
param **.sink_346.app[0].localPort 1100
param **.sink_346.app[0].replyDelay 0s
param **.sink_347.numApps 1
param **.sink_347.app[0].typename "\"TcpGenericServerApp\""
param **.sink_347.app[0].localAddress "\"\""
param **.sink_347.app[0].localPort 1100
param **.sink_347.app[0].replyDelay 0s
param **.sink_348.numApps 1
param **.sink_348.app[0].typename "\"TcpGenericServerApp\""
param **.sink_348.app[0].localAddress "\"\""
param **.sink_348.app[0].localPort 1100
param **.sink_348.app[0].replyDelay 0s
param **.sink_349.numApps 1
param **.sink_349.app[0].typename "\"TcpGenericServerApp\""
param **.sink_349.app[0].localAddress "\"\""
param **.sink_349.app[0].localPort 1100
param **.sink_349.app[0].replyDelay 0s
param **.sink_350.numApps 1
param **.sink_350.app[0].typename "\"TcpGenericServerApp\""
param **.sink_350.app[0].localAddress "\"\""
param **.sink_350.app[0].localPort 1100
param **.sink_350.app[0].replyDelay 0s
param **.sink_351.numApps 1
param **.sink_351.app[0].typename "\"TcpGenericServerApp\""
param **.sink_351.app[0].localAddress "\"\""
param **.sink_351.app[0].localPort 1100
param **.sink_351.app[0].replyDelay 0s
param **.sink_352.numApps 1
param **.sink_352.app[0].typename "\"TcpGenericServerApp\""
param **.sink_352.app[0].localAddress "\"\""
param **.sink_352.app[0].localPort 1100
param **.sink_352.app[0].replyDelay 0s
param **.sink_353.numApps 1
param **.sink_353.app[0].typename "\"TcpGenericServerApp\""
param **.sink_353.app[0].localAddress "\"\""
param **.sink_353.app[0].localPort 1100
param **.sink_353.app[0].replyDelay 0s
param **.sink_354.numApps 1
param **.sink_354.app[0].typename "\"TcpGenericServerApp\""
param **.sink_354.app[0].localAddress "\"\""
param **.sink_354.app[0].localPort 1100
param **.sink_354.app[0].replyDelay 0s
param **.sink_355.numApps 1
param **.sink_355.app[0].typename "\"TcpGenericServerApp\""
param **.sink_355.app[0].localAddress "\"\""
param **.sink_355.app[0].localPort 1100
param **.sink_355.app[0].replyDelay 0s
param **.sink_356.numApps 1
param **.sink_356.app[0].typename "\"TcpGenericServerApp\""
param **.sink_356.app[0].localAddress "\"\""
param **.sink_356.app[0].localPort 1100
param **.sink_356.app[0].replyDelay 0s
param **.sink_357.numApps 1
param **.sink_357.app[0].typename "\"TcpGenericServerApp\""
param **.sink_357.app[0].localAddress "\"\""
param **.sink_357.app[0].localPort 1100
param **.sink_357.app[0].replyDelay 0s
param **.sink_358.numApps 1
param **.sink_358.app[0].typename "\"TcpGenericServerApp\""
param **.sink_358.app[0].localAddress "\"\""
param **.sink_358.app[0].localPort 1100
param **.sink_358.app[0].replyDelay 0s
param **.sink_359.numApps 1
param **.sink_359.app[0].typename "\"TcpGenericServerApp\""
param **.sink_359.app[0].localAddress "\"\""
param **.sink_359.app[0].localPort 1100
param **.sink_359.app[0].replyDelay 0s
param **.sink_360.numApps 1
param **.sink_360.app[0].typename "\"TcpGenericServerApp\""
param **.sink_360.app[0].localAddress "\"\""
param **.sink_360.app[0].localPort 1100
param **.sink_360.app[0].replyDelay 0s
param **.source_000.numApps 1
param **.source_000.app[0].typename "\"TcpBasicClientApp\""
param **.source_000.app[0].localAddress "\"\""
param **.source_000.app[0].connectAddress "\"sink_000\""
param **.source_000.app[0].connectPort 1100
param **.source_000.app[0].startTime 0s
param **.source_000.app[0].idleInterval 1000s
param **.source_000.app[0].requestLength 1300B
param **.source_000.app[0].replyLength 20B
param **.source_000.app[0].thinkTime 0s
param **.source_000.app[0].numRequestsPerSession 10
param **.source_001.numApps 1
param **.source_001.app[0].typename "\"TcpBasicClientApp\""
param **.source_001.app[0].localAddress "\"\""
param **.source_001.app[0].connectAddress "\"sink_001\""
param **.source_001.app[0].connectPort 1100
param **.source_001.app[0].startTime 0s
param **.source_001.app[0].idleInterval 1000s
param **.source_001.app[0].requestLength 1300B
param **.source_001.app[0].replyLength 20B
param **.source_001.app[0].thinkTime 0s
param **.source_001.app[0].numRequestsPerSession 95
param **.source_002.numApps 1
param **.source_002.app[0].typename "\"TcpBasicClientApp\""
param **.source_002.app[0].localAddress "\"\""
param **.source_002.app[0].connectAddress "\"sink_002\""
param **.source_002.app[0].connectPort 1100
param **.source_002.app[0].startTime 0s
param **.source_002.app[0].idleInterval 1000s
param **.source_002.app[0].requestLength 1300B
param **.source_002.app[0].replyLength 20B
param **.source_002.app[0].thinkTime 0s
param **.source_002.app[0].numRequestsPerSession 665
param **.source_003.numApps 1
param **.source_003.app[0].typename "\"TcpBasicClientApp\""
param **.source_003.app[0].localAddress "\"\""
param **.source_003.app[0].connectAddress "\"sink_003\""
param **.source_003.app[0].connectPort 1100
param **.source_003.app[0].startTime 0s
param **.source_003.app[0].idleInterval 1000s
param **.source_003.app[0].requestLength 1300B
param **.source_003.app[0].replyLength 20B
param **.source_003.app[0].thinkTime 0s
param **.source_003.app[0].numRequestsPerSession 412
param **.source_004.numApps 1
param **.source_004.app[0].typename "\"TcpBasicClientApp\""
param **.source_004.app[0].localAddress "\"\""
param **.source_004.app[0].connectAddress "\"sink_004\""
param **.source_004.app[0].connectPort 1100
param **.source_004.app[0].startTime 0s
param **.source_004.app[0].idleInterval 1000s
param **.source_004.app[0].requestLength 1300B
param **.source_004.app[0].replyLength 20B
param **.source_004.app[0].thinkTime 0s
param **.source_004.app[0].numRequestsPerSession 359
param **.source_005.numApps 1
param **.source_005.app[0].typename "\"TcpBasicClientApp\""
param **.source_005.app[0].localAddress "\"\""
param **.source_005.app[0].connectAddress "\"sink_005\""
param **.source_005.app[0].connectPort 1100
param **.source_005.app[0].startTime 0s
[...]
865	1515592 2102 79407 1423338 0.034168 1.037201 72 0.008729 0.033886 0.971774 0.015261937082
866	1517694 344 79582 490304 0.034245 0.264553 12 0.01584 0.031766 0.243452 0.005207920794
867	1518038 345 79919 591615 0.034437 0.331613 12 0.001049 0.003657 0.022476 5.416461e-05
868	1518383 111 80002 203796 0.034485 0.096464 4 0.001349 0.00246 0.008163 1.7412717e-05
869	1518494 318 80079 537678 0.034525 0.295052 11 0.001049 0.001651 0.012262 1.3991354e-05
870	1518812 346 80245 610322 0.034638 0.344591 12 0.000882 0.00223 0.017338 2.833745e-05
871	1519158 2107 80371 1424653 0.034716 1.038564 72 0.000548 0.001889 0.064207 7.1653387e-05
872	1521265 314 80484 549674 0.034782 0.303407 11 0.016222 0.036434 0.282167 0.007744945801
873	1521579 3205 80986 1617985 0.035039 1.276041 109 0.001049 0.004339 0.177613 0.000338393577
874	1524784 1991 81100 1397149 0.035104 1.009253 68 0.001049 0.003114 0.108333 0.000196737615
875	1526775 57 81209 127903 0.035155 0.058951 2 0.021346 0.032374 0.05372 0.001503727592
876	1526832 56 81288 153308 0.035196 0.07144 2 0.032417 0.033981 0.066398 0.00220557025
877	1526888 57 81455 166913 0.035257 0.077941 2 0.002665 0.003216 0.005881 1.7444881e-05
878	1526945 697 81567 1161848 0.035301 0.782265 24 0.00899 0.032465 0.340629 0.005956684163
879	1527642 28 81592 81592 0.035305 0.035305 1 0.005338 0.005338 0.005338 2.8494244e-05
880	1527670 57 81665 128871 0.035327 0.059359 2 0.020345 0.032328 0.052673 0.001459018609
881	1527727 8825 81954 2484209 0.035419 3.223209 297 0.000882 0.004554 0.417026 0.000689489416
882	1536552 56 82143 168495 0.03549 0.078685 2 0.032505 0.040959 0.073464 0.002734214706
883	1536608 507 82373 985615 0.035596 0.63098 18 0.021301 0.050737 0.599145 0.021002115337
884	1537115 315 82779 535202 0.03579 0.293429 11 0.012776 0.038907 0.24417 0.006049624866
885	1537430 347 83097 491550 0.036044 0.265435 12 0.000882 0.003165 0.019504 3.849794e-05
886	1537777 115 83225 274981 0.036129 0.134294 4 0.028422 0.033295 0.124331 0.003880328249
887	1537892 56 83474 175765 0.03627 0.082272 2 0.033793 0.044754 0.078547 0.003144887365
888	1537948 2641 83499 1462753 0.036276 1.082303 90 0.008729 0.033185 0.940272 0.010732549314
889	1540589 86 83689 285786 0.036375 0.140466 3 0.007028 0.015798 0.03595 0.000471208964
890	1540675 1305 84064 1189469 0.03659 0.806857 45 0.008729 0.038171 0.679887 0.012991757653
891	1541980 28 84371 84371 0.036742 0.036742 1 0.033855 0.033855 0.033855 0.001146161025
892	1542008 775 84485 731252 0.036768 0.429539 27 0.008729 0.033922 0.341634 0.005302990156
893	1542783 774 84915 685399 0.036927 0.39672 27 0.008729 0.03434 0.347194 0.005314616432
894	1543557 1663 84963 1265380 0.036943 0.878316 57 0.008886 0.033909 0.783671 0.011858476065
895	1545220 4246 85311 2086951 0.03711 2.072559 143 0.001049 0.004668 0.210724 0.000409203062
896	1549466 28 85471 85471 0.037184 0.037184 1 0.034495 0.034495 0.034495 0.001189905025
897	1549494 2638 85742 1463613 0.037325 1.083352 90 0.001049 0.003523 0.139989 0.000253262553
898	1552132 172 85983 297149 0.037459 0.147215 6 0.001777 0.006267 0.020692 8.3910078e-05
899	1552304 57 85985 157545 0.037459 0.073343 2 0.001903 0.002263 0.004166 8.742578e-06
900	1552361 57 86113 194693 0.037517 0.092071 2 0.034279 0.052457 0.086736 0.00392678669
901	1552418 57 86134 179484 0.037518 0.084073 2 0.001248 0.001801 0.003049 4.801105e-06
902	1552475 143 86169 350335 0.037523 0.177978 5 0.028721 0.036755 0.168363 0.005707514707
903	1552618 56 86315 133651 0.037605 0.061602 2 0.00245 0.002651 0.005101 1.3030301e-05
904	1552674 633 86422 850928 0.03766 0.520731 22 0.001049 0.003858 0.041094 9.0954622e-05
905	1553307 6097 86508 2235900 0.037689 2.43316 206 0.001049 0.006095 0.37908 0.000920361582
906	1559404 57 86570 170470 0.037726 0.079793 2 0.001108 0.002236 0.003344 6.22736e-06
907	1559461 201 86956 440895 0.037984 0.232859 7 0.025127 0.035459 0.213616 0.006616772896
908	1559662 516 87024 987344 0.038022 0.632664 18 0.001049 0.00286 0.030893 5.9292691e-05
909	1560178 288 87265 496972 0.038136 0.268929 10 0.012524 0.035147 0.246895 0.006665689619
910	1560466 6457 87318 2381540 0.038162 2.8593 217 0.008729 0.035112 1.993829 0.019233969129
911	1566923 1663 87372 1266360 0.038183 0.879365 57 0.001049 0.004032 0.09266 0.000180409522
912	1568586 202 87608 522317 0.038278 0.285216 7 0.035548 0.041699 0.27443 0.010781402214
913	1568788 7684 87857 2487490 0.03834 3.234949 258 0.001049 0.006079 0.31355 0.00044680478
914	1576472 317 87980 550816 0.038387 0.304289 11 0.000882 0.003605 0.01939 4.156732e-05
915	1576789 2755 88341 1505538 0.038569 1.133358 94 0.007282 0.036367 1.048523 0.014032049555
916	1579544 200 88373 393129 0.038578 0.203796 7 0.021088 0.03628 0.184747 0.005145184877
917	1579744 259 88982 509403 0.038964 0.276639 9 0.018478 0.037988 0.255308 0.007753747682
918	1580003 1311 89011 1190934 0.038967 0.807974 45 0.001049 0.006016 0.125206 0.00041280972
919	1581314 2132 89074 1381411 0.038988 0.99334 73 0.001049 0.005959 0.2004 0.000670612708
920	1583446 56 89177 135191 0.039014 0.062329 2 0.00297 0.003687 0.006657 2.2414869e-05
921	1583502 115 89347 328226 0.039099 0.164943 4 0.032804 0.056105 0.158196 0.006625698546
922	1583617 85 89455 228357 0.03915 0.108993 3 0.001961 0.005196 0.009574 3.6685826e-05
923	1583702 202 89805 523913 0.039327 0.286301 7 0.001049 0.002329 0.009141 1.3347031e-05
924	1583904 892 89937 975556 0.039378 0.622784 31 0.009681 0.036446 0.573021 0.012469770883
925	1584796 28 89967 89967 0.039386 0.039386 1 0.002202 0.002202 0.002202 4.848804e-06
926	1584824 2759 90093 1506630 0.039451 1.13424 94 0.000882 0.000949 0.083136 7.3538486e-05
927	1587583 311 90181 541420 0.0395 0.297877 11 0.002041 0.007375 0.051069 0.000265411617
928	1587894 894 90288 726019 0.039556 0.425481 31 0.007282 0.036353 0.342466 0.004822854822
929	1588788 86 90336 327408 0.039577 0.164457 3 0.030547 0.036537 0.099352 0.003309295402
930	1588874 57 90427 197154 0.039614 0.093264 2 0.001193 0.002097 0.00329 5.820658e-06
931	1588931 489 90736 942451 0.039719 0.595713 17 0.024906 0.041153 0.570314 0.019710264716
932	1589420 519 90913 991731 0.039778 0.636462 18 0.023384 0.047823 0.595579 0.020592666941
933	1589939 774 91004 687798 0.03982 0.39876 27 0.001049 0.003656 0.048979 0.000106603461
934	1590713 374 91281 555701 0.040019 0.30751 13 0.015418 0.036883 0.280525 0.006519420319
935	1591087 114 91469 332408 0.040148 0.16725 4 0.001049 0.002307 0.005459 8.633967e-06
936	1591201 343 91734 600056 0.040396 0.337534 12 0.015182 0.039931 0.314716 0.009137225484
937	1591544 56 92202 159745 0.040725 0.074444 2 0.032474 0.03764 0.070114 0.002471330276
938	1591600 57 92459 140504 0.040903 0.065029 2 0.022017 0.037802 0.059819 0.001913739493
939	1591657 887 92550 732414 0.040953 0.43033 31 0.001049 0.006206 0.084661 0.000296266537
940	1592544 86 92811 187081 0.041062 0.088254 3 0.015824 0.038381 0.080573 0.002418771561
941	1592630 572 92849 1015852 0.041066 0.657011 20 0.017037 0.042002 0.611305 0.019861137129
942	1593202 86 93147 238036 0.041172 0.114049 3 0.033139 0.038081 0.105337 0.003712325571
943	1593288 115 93217 282783 0.041195 0.138812 4 0.000882 0.005066 0.011647 4.8249365e-05
944	1593403 144 93492 355122 0.041309 0.180754 5 0.000882 0.003786 0.009912 2.6049458e-05
945	1593547 1335 93709 1216594 0.041413 0.831534 46 0.010176 0.03852 0.698807 0.012380521925
946	1594882 892 94495 976591 0.041856 0.623666 31 0.000882 0.002478 0.047713 8.4535011e-05
947	1595774 802 94533 812013 0.041867 0.491015 28 0.008782 0.038829 0.442324 0.008828067796
948	1596576 56 94716 162439 0.04197 0.075681 2 0.001237 0.001245 0.002482 3.080194e-06
949	1596632 780 94821 733039 0.042024 0.430715 27 0.001049 0.005292 0.086235 0.000319512311
950	1597412 490 94947 945542 0.042095 0.597869 17 0.001049 0.002376 0.024417 3.9567489e-05
951	1597902 84 94982 192946 0.042111 0.091094 3 0.001049 0.003951 0.00784 2.4776402e-05
952	1597986 57 95037 170751 0.042119 0.079926 2 0.036758 0.039085 0.075843 0.002878787789
953	1598043 2158 95580 1404882 0.042438 1.017615 74 0.008729 0.039286 0.823671 0.010395234283
954	1600201 57 96133 171818 0.042673 0.080358 2 0.035389 0.039343 0.074732 0.00280025297
955	1600258 28 96391 96391 0.042836 0.042836 1 0.006094 0.006094 0.006094 3.7136836e-05
956	1600286 255 96443 511640 0.042864 0.278149 9 0.000992 0.0039 0.02026 5.5967098e-05
957	1600541 725 96579 1177365 0.04295 0.796021 25 0.00596 0.033491 0.453125 0.010198497261
958	1601266 57 96686 150743 0.043012 0.070123 2 0.002109 0.005094 0.007203 3.0396717e-05
959	1601323 287 96711 499272 0.043017 0.27037 10 0.001049 0.004881 0.020486 6.0488296e-05
960	1601610 199 96804 442789 0.043073 0.234142 7 0.001084 0.005089 0.017543 5.5307451e-05
961	1601809 57 96975 172968 0.043168 0.080975 2 0.001049 0.001049 0.002098 2.200802e-06
962	1601866 286 97121 504855 0.043261 0.273804 10 0.012675 0.04058 0.255289 0.007307674875
963	1602152 56 97352 173550 0.043466 0.081273 2 0.036758 0.04033 0.077088 0.002977659464
964	1602208 579 97374 1019045 0.043468 0.659348 20 0.001049 0.005603 0.044803 0.000121714823
965	1602787 4544 97424 2138556 0.043486 2.183717 153 0.008729 0.04442 1.959574 0.034747626142
966	1607331 82 97460 249027 0.0435 0.119629 3 0.002328 0.00558 0.011201 4.7399833e-05
967	1607413 198 97602 396953 0.043568 0.206156 7 0.001216 0.00499 0.018567 6.0205221e-05
968	1607611 346 97883 603215 0.043709 0.339561 12 0.000715 0.003313 0.02196 4.68624e-05
969	1607957 12765 98408 2701189 0.043948 4.308355 428 0.007282 0.0423 3.838458 0.04634678154
970	1620722 199 98582 423762 0.04402 0.222457 7 0.016602 0.040792 0.211 0.006787459922
971	1620921 57 99006 176544 0.044201 0.082589 2 0.037339 0.041014 0.078353 0.003076349117
972	1620978 201 99300 558953 0.04441 0.309719 7 0.018841 0.033507 0.212144 0.006588788944
973	1621179 57 99480 175901 0.044515 0.082322 2 0.001049 0.001049 0.002098 2.200802e-06
974	1621236 173 99514 583031 0.044524 0.325737 6 0.021403 0.034984 0.1829 0.005689587214
975	1621409 1957 99755 1418115 0.044634 1.031711 67 0.008742 0.041653 0.92286 0.01554023207
976	1623366 171 99797 371301 0.044655 0.190759 6 0.020271 0.041566 0.176807 0.005472938089
977	1623537 2165 100103 1406606 0.044828 1.019219 74 0.001049 0.007149 0.192396 0.000610738828
978	1625702 201 100240 442946 0.044907 0.234253 7 0.024342 0.04172 0.215475 0.006844970311
979	1625903 58 100439 176988 0.044969 0.082844 2 0.002296 0.002486 0.004782 1.1451812e-05
980	1625961 202 100697 427432 0.045069 0.224813 7 0.001049 0.002356 0.010585 1.8221649e-05
981	1626163 374 100730 558707 0.045076 0.309575 13 0.001216 0.005057 0.025914 6.5041406e-05
982	1626537 87 101014 197096 0.045226 0.093238 3 0.018292 0.041972 0.08461 0.002688973764
983	1626624 57 101069 178689 0.04525 0.083638 2 0.001049 0.001049 0.002098 2.200802e-06
984	1626681 810 101318 813413 0.045331 0.492142 28 0.000715 0.003464 0.04678 9.866955e-05
985	1627491 145 101492 353952 0.045414 0.180073 5 0.025686 0.042237 0.166223 0.005690267671
986	1627636 289 101672 508017 0.045492 0.275813 10 0.000715 0.002659 0.017843 3.7087209e-05
987	1627925 1963 102199 1419237 0.04585 1.032927 67 0.001216 0.003819 0.107086 0.000198723272
988	1629888 661 102500 790760 0.046002 0.474365 23 0.00783 0.043015 0.449375 0.011138296691
989	1630549 12765 103175 2701473 0.046324 4.309404 428 0.001049 0.002422 0.467451 0.000531318441
990	1643314 86 103276 200002 0.046353 0.094478 3 0.001127 0.004247 0.006614 2.0844738e-05
991	1643400 426 103375 683576 0.046395 0.395456 15 0.015033 0.043157 0.370977 0.010050044075
992	1643826 115 104189 332373 0.046761 0.167245 4 0.035306 0.04338 0.154115 0.005983579521
993	1643941 663 104480 792188 0.046884 0.475247 23 0.000882 0.002129 0.022885 2.4609101e-05
994	1644604 838 104596 955609 0.046942 0.606602 29 0.010879 0.043965 0.517584 0.010851385944
995	1645442 201 105048 444349 0.047235 0.235302 7 0.001049 0.003785 0.01664 4.5680304e-05
996	1645643 432 105135 684788 0.047302 0.396338 15 0.000882 0.003324 0.022123 4.2110935e-05
997	1646075 202 105292 427151 0.047396 0.224685 7 0.018955 0.044613 0.202718 0.006357803136
998	1646277 4541 105676 2138928 0.047595 2.184766 153 0.001049 0.004654 0.222411 0.000405573517
999	1650818 430 106087 704999 0.047789 0.41079 15 0.017654 0.044449 0.382335 0.010515871833
1000	1651248 1384 106402 1217764 0.047931 0.83275 46 0.001216 0.007881 0.13105 0.000502237166
1001	1652632 662 106561 1102303 0.048014 0.730989 22 0.008729 0.044678 0.27874 0.00475076182
1002	1653294 298 106836 769789 0.048155 0.458185 10 0.008729 0.044876 0.195175 0.005079362717
1003	1653592 536 107412 993859 0.04842 0.638451 18 0.001049 0.008642 0.040195 0.000150514993
1004	1654128 149 107645 362366 0.048558 0.184966 5 0.001854 0.004893 0.015566 5.3564134e-05
1005	1654277 180 107705 372946 0.048581 0.191686 6 0.000882 0.003926 0.01179 3.0386556e-05
1006	1654457 119 107927 343699 0.048719 0.174094 4 0.001958 0.006849 0.016598 8.1291486e-05
1007	1654576 90 108191 270244 0.048837 0.131412 3 0.036918 0.045697 0.124811 0.005231656949
1008	1654666 3834 108754 1998684 0.049156 1.898373 125 0.008729 0.046065 1.696698 0.03213278405
1009	1658500 1264 108825 1152925 0.049183 0.774781 42 0.008729 0.045894 0.663603 0.013476669453
1010	1659764 60 109620 185395 0.049549 0.087281 2 0.034167 0.046117 0.080284 0.003294161578
1011	1659824 867 110483 958839 0.050096 0.609133 29 0.001278 0.005721 0.088572 0.000313205786
1012	1660691 448 110595 708885 0.050174 0.413253 15 0.001049 0.00251 0.027578 5.544649e-05
1013	1661139 1268 110723 1155828 0.050241 0.776713 42 0.001049 0.006072 0.109821 0.000344104963
1014	1662407 693 112130 1158743 0.05099 0.779571 23 0.009011 0.047507 0.349048 0.007237499124
1015	1663100 209 112396 432236 0.051088 0.227686 7 0.001049 0.004924 0.022185 7.9149831e-05
1016	1663309 3831 112419 1999074 0.05109 1.899422 125 0.001049 0.004983 0.199633 0.000406949091
1017	1667140 1205 112513 1124894 0.051124 0.750265 40 0.011344 0.047845 0.660436 0.01271965603
1018	1668345 90 112824 275311 0.051249 0.134504 3 0.001049 0.003092 0.006553 1.6478609e-05
1019	1668435 298 113322 520248 0.051625 0.283609 10 0.014473 0.048689 0.254148 0.007688210242
1020	1668733 210 114045 565092 0.051991 0.313848 7 0.037214 0.049108 0.29817 0.012780587044
1021	1668943 208 114784 428019 0.052384 0.225292 7 0.018702 0.04885 0.208425 0.006764194623
1022	1669151 2169 116268 1639786 0.053002 1.30678 71 0.001049 0.034043 0.692254 0.012909536498
1023	1671320 60 116472 193610 0.053114 0.091472 2 0.003565 0.004191 0.007756 3.0273706e-05
1024	1671380 297 116962 522365 0.053334 0.285248 10 0.001049 0.004765 0.028164 9.3219776e-05
1025	1671677 30 117717 117717 0.053778 0.053778 1 0.050193 0.050193 0.050193 0.002519337249
1026	1671707 89 118060 245676 0.053959 0.118191 3 0.027302 0.05057 0.108548 0.00424374108
1027	1671796 209 118864 570072 0.054407 0.316856 7 0.001049 0.003696 0.015803 4.1383955e-05
1028	1672005 89 118886 277558 0.054413 0.135688 3 0.03436 0.051175 0.12704 0.00552215525
1029	1672094 1365 119511 1425545 0.054732 1.039612 45 0.009506 0.050183 0.952297 0.025690002197
1030	1673459 30 122170 122170 0.056197 0.056197 1 0.002419 0.002419 0.002419 5.851561e-06
1031	1673489 1259 122909 1102175 0.056613 0.730911 42 0.008729 0.052926 0.605854 0.011518922448
1032	1674748 562 123454 1021276 0.056848 0.66146 19 0.019767 0.053659 0.620675 0.021601546003
1033	1675310 1360 124363 1427040 0.057296 1.041576 45 0.001049 0.004643 0.08473 0.000187891926
1034	1676670 90 124909 279387 0.057516 0.136737 3 0.001049 0.003103 0.006459 1.6051259e-05
1035	1676760 1198 125044 1126802 0.057563 0.752264 40 0.001216 0.006439 0.088549 0.000244882971
1036	1677958 1553 125072 1499425 0.057567 1.125562 51 0.008729 0.054235 1.021844 0.026724051778
1037	1679511 90 125341 248439 0.057677 0.119407 3 0.001216 0.003718 0.00747 2.1733476e-05
1038	1679601 1955 125965 1636534 0.058007 1.302945 64 0.008729 0.054371 0.752243 0.011959233365
1039	1681556 445 126203 677807 0.058141 0.391318 15 0.014398 0.05456 0.340146 0.00924354014
1040	1682001 6436 126949 2276085 0.058521 2.545493 210 0.008729 0.055334 2.197134 0.027973291152
1041	1688437 1903 127090 1297241 0.058595 0.909674 63 0.007282 0.055306 0.791776 0.014530339346
1042	1690340 90 127350 307057 0.058739 0.152743 3 0.026153 0.032696 0.090051 0.002726572629
1043	1690430 4644 127826 2142906 0.058931 2.192643 151 0.001049 0.032541 0.757842 0.011869421706
1044	1695074 1262 128314 1105292 0.059099 0.733307 42 0.001049 0.005874 0.123766 0.00043833682
1045	1696336 208 129569 429987 0.059719 0.226443 7 0.001049 0.007335 0.014484 6.2775834e-05
1046	1696544 90 130021 254187 0.059952 0.122326 3 0.028474 0.055028 0.114916 0.004825688856
1047	1696634 1213 130071 1369166 0.059968 0.981392 40 0.010705 0.056728 0.91075 0.02615827231
1048	1697847 30 130207 130207 0.060036 0.060036 1 0.056696 0.056696 0.056696 0.003214436416
1049	1697877 1554 131160 1500444 0.060425 1.126611 51 0.001049 0.004596 0.101435 0.000260500195
1050	1699431 6440 131306 2276622 0.060495 2.546709 210 0.001216 0.006868 0.346388 0.000733052464
1051	1705871 88 132602 258424 0.061168 0.124936 3 0.001216 0.00261 0.005096 9.903656e-06
1052	1705959 446 132884 681298 0.061282 0.393665 15 0.00141 0.008094 0.049938 0.000208378508
1053	1706405 1212 133718 1371603 0.06163 0.983399 40 0.001049 0.003571 0.069409 0.000139140153
1054	1707617 420 133954 866839 0.061702 0.533504 14 0.024355 0.057102 0.499544 0.018757524426
1055	1708037 1906 134024 1301064 0.06172 0.91323 63 0.000882 0.004153 0.118165 0.000285249763
1056	1709943 357 134139 846348 0.061755 0.517559 12 0.018101 0.033714 0.318297 0.008810722187
1057	1710300 30 136318 136318 0.062919 0.062919 1 0.059628 0.059628 0.059628 0.003555498384
1058	1710330 30 138073 138073 0.063868 0.063868 1 0.003832 0.003832 0.003832 1.4684224e-05
1059	1710360 2005 138740 1570668 0.064266 1.212796 66 0.010223 0.061287 1.107344 0.02310151031
1060	1712365 570 139521 1023061 0.064579 0.663081 19 0.001049 0.007731 0.039217 0.000134910559
1061	1712935 727 140347 1167764 0.064966 0.787214 24 0.004949 0.035222 0.443749 0.010219352233
1062	1713662 420 140778 869235 0.065143 0.535351 14 0.001049 0.003557 0.031207 8.0198605e-05
1063	1714082 30 141374 141374 0.065491 0.065491 1 0.062151 0.062151 0.062151 0.003862746801
1064	1714112 752 141874 1146639 0.065707 0.768755 25 0.01441 0.062263 0.717599 0.023702203689
1065	1714864 29 143989 143989 0.06654 0.06654 1 0.001049 0.001049 0.001049 1.100401e-06
1066	1714893 30 147560 147560 0.068448 0.068448 1 0.065363 0.065363 0.065363 0.004272321769
1067	1714923 89 149106 381471 0.069094 0.196166 3 0.029517 0.032548 0.093774 0.002936086274
1068	1715012 90 150280 316143 0.069889 0.158097 3 0.039356 0.066145 0.145342 0.007511361042
1069	1715102 6677 151866 2381988 0.070602 2.860349 217 0.001049 0.034231 0.86347 0.012839835502
1070	1721779 30 154383 154383 0.071824 0.071824 1 0.008905 0.008905 0.008905 7.9299025e-05
1071	1721809 2010 154739 1571903 0.071985 1.213845 66 0.001049 0.007719 0.103522 0.000221539918
1072	1723819 60 155549 236142 0.072461 0.113216 2 0.039776 0.068915 0.108691 0.006331407401
1073	1723879 328 155888 666307 0.072583 0.383572 11 0.021496 0.069447 0.365265 0.013994487075
1074	1724207 59 157767 238200 0.07344 0.114098 2 0.000882 0.000979 0.001861 1.736365e-06
1075	1724266 329 158683 668736 0.074019 0.385128 11 0.001049 0.002083 0.016727 2.6650535e-05
1076	1724595 90 160409 322180 0.074728 0.161671 3 0.003574 0.004839 0.012585 5.3594981e-05
1077	1724685 755 160692 1147770 0.074842 0.769804 25 0.001049 0.009135 0.048761 0.000163211413
1078	1725440 30 164445 164445 0.076623 0.076623 1 0.008175 0.008175 0.008175 6.6830625e-05
1079	1725470 660 177726 1112825 0.083215 0.740024 22 0.006384 0.035201 0.457948 0.011241077064
1080	1726130 298 178078 796605 0.083329 0.47864 10 0.020455 0.035174 0.280186 0.008056261886
1081	1726428 695 186059 1166042 0.087625 0.785659 23 0.006088 0.036635 0.433128 0.01019013813
1082	1727123 1953 197177 1638696 0.093268 1.305547 64 0.000882 0.035261 0.549668 0.010473525998

