version 2
run General-0-20220427-22:41:41-22559
attr configname General
attr datetime 20220427-22:41:41
attr experiment General
attr inifile Jellyfish_24_8_7_8_per00001__jelly_faults_seed26.ini
attr iterationvars ""
attr iterationvarsf ""
attr measurement ""
attr network Jellyfish_24_8_7_8_per00001__jelly_faults_seed26
attr processid 22559
attr repetition 0
attr replication #0
attr resultdir results
attr runnumber 0
attr seedset 0
param **.ppp[*].ppp.queue.typename "\"DropTailQueue\""
param **.ppp[*].ppp.queue.packetCapacity 100
param *.configurator.config "xmldoc(\"Jellyfish_24_8_7_8_per00001__jelly_faults_seed26.xml\")"
param **.sink_000.numApps 1
param **.sink_000.app[0].typename "\"TcpGenericServerApp\""
param **.sink_000.app[0].localAddress "\"\""
param **.sink_000.app[0].localPort 1100
param **.sink_000.app[0].replyDelay 0s
param **.sink_001.numApps 1
param **.sink_001.app[0].typename "\"TcpGenericServerApp\""
param **.sink_001.app[0].localAddress "\"\""
param **.sink_001.app[0].localPort 1100
param **.sink_001.app[0].replyDelay 0s
param **.sink_002.numApps 1
param **.sink_002.app[0].typename "\"TcpGenericServerApp\""
param **.sink_002.app[0].localAddress "\"\""
param **.sink_002.app[0].localPort 1100
param **.sink_002.app[0].replyDelay 0s
param **.sink_003.numApps 1
param **.sink_003.app[0].typename "\"TcpGenericServerApp\""
param **.sink_003.app[0].localAddress "\"\""
param **.sink_003.app[0].localPort 1100
param **.sink_003.app[0].replyDelay 0s
param **.sink_004.numApps 1
param **.sink_004.app[0].typename "\"TcpGenericServerApp\""
param **.sink_004.app[0].localAddress "\"\""
param **.sink_004.app[0].localPort 1100
param **.sink_004.app[0].replyDelay 0s
param **.sink_005.numApps 1
param **.sink_005.app[0].typename "\"TcpGenericServerApp\""
param **.sink_005.app[0].localAddress "\"\""
param **.sink_005.app[0].localPort 1100
param **.sink_005.app[0].replyDelay 0s
param **.sink_006.numApps 1
param **.sink_006.app[0].typename "\"TcpGenericServerApp\""
param **.sink_006.app[0].localAddress "\"\""
param **.sink_006.app[0].localPort 1100
param **.sink_006.app[0].replyDelay 0s
param **.sink_007.numApps 1
param **.sink_007.app[0].typename "\"TcpGenericServerApp\""
param **.sink_007.app[0].localAddress "\"\""
param **.sink_007.app[0].localPort 1100
param **.sink_007.app[0].replyDelay 0s
param **.sink_008.numApps 1
param **.sink_008.app[0].typename "\"TcpGenericServerApp\""
param **.sink_008.app[0].localAddress "\"\""
param **.sink_008.app[0].localPort 1100
param **.sink_008.app[0].replyDelay 0s
param **.sink_009.numApps 1
param **.sink_009.app[0].typename "\"TcpGenericServerApp\""
param **.sink_009.app[0].localAddress "\"\""
param **.sink_009.app[0].localPort 1100
param **.sink_009.app[0].replyDelay 0s
param **.sink_010.numApps 1
param **.sink_010.app[0].typename "\"TcpGenericServerApp\""
param **.sink_010.app[0].localAddress "\"\""
param **.sink_010.app[0].localPort 1100
param **.sink_010.app[0].replyDelay 0s
param **.sink_011.numApps 1
param **.sink_011.app[0].typename "\"TcpGenericServerApp\""
param **.sink_011.app[0].localAddress "\"\""
param **.sink_011.app[0].localPort 1100
param **.sink_011.app[0].replyDelay 0s
param **.sink_012.numApps 1
param **.sink_012.app[0].typename "\"TcpGenericServerApp\""
param **.sink_012.app[0].localAddress "\"\""
param **.sink_012.app[0].localPort 1100
param **.sink_012.app[0].replyDelay 0s
param **.sink_013.numApps 1
param **.sink_013.app[0].typename "\"TcpGenericServerApp\""
param **.sink_013.app[0].localAddress "\"\""
param **.sink_013.app[0].localPort 1100
param **.sink_013.app[0].replyDelay 0s
param **.sink_014.numApps 1
param **.sink_014.app[0].typename "\"TcpGenericServerApp\""
param **.sink_014.app[0].localAddress "\"\""
param **.sink_014.app[0].localPort 1100
param **.sink_014.app[0].replyDelay 0s
param **.sink_015.numApps 1
param **.sink_015.app[0].typename "\"TcpGenericServerApp\""
param **.sink_015.app[0].localAddress "\"\""
param **.sink_015.app[0].localPort 1100
param **.sink_015.app[0].replyDelay 0s
param **.sink_016.numApps 1
param **.sink_016.app[0].typename "\"TcpGenericServerApp\""
param **.sink_016.app[0].localAddress "\"\""
param **.sink_016.app[0].localPort 1100
param **.sink_016.app[0].replyDelay 0s
param **.sink_017.numApps 1
param **.sink_017.app[0].typename "\"TcpGenericServerApp\""
param **.sink_017.app[0].localAddress "\"\""
param **.sink_017.app[0].localPort 1100
param **.sink_017.app[0].replyDelay 0s
param **.sink_018.numApps 1
param **.sink_018.app[0].typename "\"TcpGenericServerApp\""
param **.sink_018.app[0].localAddress "\"\""
param **.sink_018.app[0].localPort 1100
param **.sink_018.app[0].replyDelay 0s
param **.sink_019.numApps 1
param **.sink_019.app[0].typename "\"TcpGenericServerApp\""
param **.sink_019.app[0].localAddress "\"\""
param **.sink_019.app[0].localPort 1100
param **.sink_019.app[0].replyDelay 0s
param **.sink_020.numApps 1
param **.sink_020.app[0].typename "\"TcpGenericServerApp\""
param **.sink_020.app[0].localAddress "\"\""
param **.sink_020.app[0].localPort 1100
param **.sink_020.app[0].replyDelay 0s
param **.sink_021.numApps 1
param **.sink_021.app[0].typename "\"TcpGenericServerApp\""
param **.sink_021.app[0].localAddress "\"\""
param **.sink_021.app[0].localPort 1100
param **.sink_021.app[0].replyDelay 0s
param **.sink_022.numApps 1
param **.sink_022.app[0].typename "\"TcpGenericServerApp\""
param **.sink_022.app[0].localAddress "\"\""
param **.sink_022.app[0].localPort 1100
param **.sink_022.app[0].replyDelay 0s
param **.sink_023.numApps 1
param **.sink_023.app[0].typename "\"TcpGenericServerApp\""
param **.sink_023.app[0].localAddress "\"\""
param **.sink_023.app[0].localPort 1100
param **.sink_023.app[0].replyDelay 0s
param **.sink_024.numApps 1
param **.sink_024.app[0].typename "\"TcpGenericServerApp\""
param **.sink_024.app[0].localAddress "\"\""
param **.sink_024.app[0].localPort 1100
param **.sink_024.app[0].replyDelay 0s
param **.sink_025.numApps 1
param **.sink_025.app[0].typename "\"TcpGenericServerApp\""
param **.sink_025.app[0].localAddress "\"\""
param **.sink_025.app[0].localPort 1100
param **.sink_025.app[0].replyDelay 0s
param **.sink_026.numApps 1
param **.sink_026.app[0].typename "\"TcpGenericServerApp\""
param **.sink_026.app[0].localAddress "\"\""
param **.sink_026.app[0].localPort 1100
param **.sink_026.app[0].replyDelay 0s
param **.sink_027.numApps 1
param **.sink_027.app[0].typename "\"TcpGenericServerApp\""
param **.sink_027.app[0].localAddress "\"\""
param **.sink_027.app[0].localPort 1100
param **.sink_027.app[0].replyDelay 0s
param **.sink_028.numApps 1
param **.sink_028.app[0].typename "\"TcpGenericServerApp\""
param **.sink_028.app[0].localAddress "\"\""
param **.sink_028.app[0].localPort 1100
param **.sink_028.app[0].replyDelay 0s
param **.sink_029.numApps 1
param **.sink_029.app[0].typename "\"TcpGenericServerApp\""
param **.sink_029.app[0].localAddress "\"\""
param **.sink_029.app[0].localPort 1100
param **.sink_029.app[0].replyDelay 0s
param **.sink_030.numApps 1
param **.sink_030.app[0].typename "\"TcpGenericServerApp\""
param **.sink_030.app[0].localAddress "\"\""
param **.sink_030.app[0].localPort 1100
param **.sink_030.app[0].replyDelay 0s
param **.sink_031.numApps 1
param **.sink_031.app[0].typename "\"TcpGenericServerApp\""
param **.sink_031.app[0].localAddress "\"\""
param **.sink_031.app[0].localPort 1100
param **.sink_031.app[0].replyDelay 0s
param **.sink_032.numApps 1
param **.sink_032.app[0].typename "\"TcpGenericServerApp\""
param **.sink_032.app[0].localAddress "\"\""
param **.sink_032.app[0].localPort 1100
param **.sink_032.app[0].replyDelay 0s
param **.sink_033.numApps 1
param **.sink_033.app[0].typename "\"TcpGenericServerApp\""
param **.sink_033.app[0].localAddress "\"\""
param **.sink_033.app[0].localPort 1100
param **.sink_033.app[0].replyDelay 0s
param **.sink_034.numApps 1
param **.sink_034.app[0].typename "\"TcpGenericServerApp\""
param **.sink_034.app[0].localAddress "\"\""
param **.sink_034.app[0].localPort 1100
param **.sink_034.app[0].replyDelay 0s
param **.sink_035.numApps 1
param **.sink_035.app[0].typename "\"TcpGenericServerApp\""
param **.sink_035.app[0].localAddress "\"\""
param **.sink_035.app[0].localPort 1100
param **.sink_035.app[0].replyDelay 0s
param **.sink_036.numApps 1
param **.sink_036.app[0].typename "\"TcpGenericServerApp\""
param **.sink_036.app[0].localAddress "\"\""
param **.sink_036.app[0].localPort 1100
param **.sink_036.app[0].replyDelay 0s
param **.sink_037.numApps 1
param **.sink_037.app[0].typename "\"TcpGenericServerApp\""
param **.sink_037.app[0].localAddress "\"\""
param **.sink_037.app[0].localPort 1100
param **.sink_037.app[0].replyDelay 0s
param **.sink_038.numApps 1
param **.sink_038.app[0].typename "\"TcpGenericServerApp\""
param **.sink_038.app[0].localAddress "\"\""
param **.sink_038.app[0].localPort 1100
param **.sink_038.app[0].replyDelay 0s
param **.sink_039.numApps 1
param **.sink_039.app[0].typename "\"TcpGenericServerApp\""
param **.sink_039.app[0].localAddress "\"\""
param **.sink_039.app[0].localPort 1100
param **.sink_039.app[0].replyDelay 0s
param **.sink_040.numApps 1
param **.sink_040.app[0].typename "\"TcpGenericServerApp\""
param **.sink_040.app[0].localAddress "\"\""
param **.sink_040.app[0].localPort 1100
param **.sink_040.app[0].replyDelay 0s
param **.sink_041.numApps 1
param **.sink_041.app[0].typename "\"TcpGenericServerApp\""
param **.sink_041.app[0].localAddress "\"\""
param **.sink_041.app[0].localPort 1100
param **.sink_041.app[0].replyDelay 0s
param **.sink_042.numApps 1
param **.sink_042.app[0].typename "\"TcpGenericServerApp\""
param **.sink_042.app[0].localAddress "\"\""
param **.sink_042.app[0].localPort 1100
param **.sink_042.app[0].replyDelay 0s
param **.sink_043.numApps 1
param **.sink_043.app[0].typename "\"TcpGenericServerApp\""
param **.sink_043.app[0].localAddress "\"\""
param **.sink_043.app[0].localPort 1100
param **.sink_043.app[0].replyDelay 0s
param **.sink_044.numApps 1
param **.sink_044.app[0].typename "\"TcpGenericServerApp\""
param **.sink_044.app[0].localAddress "\"\""
param **.sink_044.app[0].localPort 1100
param **.sink_044.app[0].replyDelay 0s
param **.sink_045.numApps 1
param **.sink_045.app[0].typename "\"TcpGenericServerApp\""
param **.sink_045.app[0].localAddress "\"\""
param **.sink_045.app[0].localPort 1100
param **.sink_045.app[0].replyDelay 0s
param **.sink_046.numApps 1
param **.sink_046.app[0].typename "\"TcpGenericServerApp\""
param **.sink_046.app[0].localAddress "\"\""
param **.sink_046.app[0].localPort 1100
param **.sink_046.app[0].replyDelay 0s
param **.sink_047.numApps 1
param **.sink_047.app[0].typename "\"TcpGenericServerApp\""
param **.sink_047.app[0].localAddress "\"\""
param **.sink_047.app[0].localPort 1100
param **.sink_047.app[0].replyDelay 0s
param **.sink_048.numApps 1
param **.sink_048.app[0].typename "\"TcpGenericServerApp\""
param **.sink_048.app[0].localAddress "\"\""
param **.sink_048.app[0].localPort 1100
param **.sink_048.app[0].replyDelay 0s
param **.sink_049.numApps 1
param **.sink_049.app[0].typename "\"TcpGenericServerApp\""
param **.sink_049.app[0].localAddress "\"\""
param **.sink_049.app[0].localPort 1100
param **.sink_049.app[0].replyDelay 0s
param **.sink_050.numApps 1
param **.sink_050.app[0].typename "\"TcpGenericServerApp\""
param **.sink_050.app[0].localAddress "\"\""
param **.sink_050.app[0].localPort 1100
param **.sink_050.app[0].replyDelay 0s
param **.sink_051.numApps 1
param **.sink_051.app[0].typename "\"TcpGenericServerApp\""
param **.sink_051.app[0].localAddress "\"\""
param **.sink_051.app[0].localPort 1100
param **.sink_051.app[0].replyDelay 0s
param **.sink_052.numApps 1
param **.sink_052.app[0].typename "\"TcpGenericServerApp\""
param **.sink_052.app[0].localAddress "\"\""
param **.sink_052.app[0].localPort 1100
param **.sink_052.app[0].replyDelay 0s
param **.sink_053.numApps 1
param **.sink_053.app[0].typename "\"TcpGenericServerApp\""
param **.sink_053.app[0].localAddress "\"\""
param **.sink_053.app[0].localPort 1100
param **.sink_053.app[0].replyDelay 0s
param **.sink_054.numApps 1
param **.sink_054.app[0].typename "\"TcpGenericServerApp\""
param **.sink_054.app[0].localAddress "\"\""
param **.sink_054.app[0].localPort 1100
param **.sink_054.app[0].replyDelay 0s
param **.sink_055.numApps 1
param **.sink_055.app[0].typename "\"TcpGenericServerApp\""
param **.sink_055.app[0].localAddress "\"\""
param **.sink_055.app[0].localPort 1100
param **.sink_055.app[0].replyDelay 0s
param **.sink_056.numApps 1
param **.sink_056.app[0].typename "\"TcpGenericServerApp\""
param **.sink_056.app[0].localAddress "\"\""
param **.sink_056.app[0].localPort 1100
param **.sink_056.app[0].replyDelay 0s
param **.sink_057.numApps 1
param **.sink_057.app[0].typename "\"TcpGenericServerApp\""
param **.sink_057.app[0].localAddress "\"\""
param **.sink_057.app[0].localPort 1100
param **.sink_057.app[0].replyDelay 0s
param **.sink_058.numApps 1
param **.sink_058.app[0].typename "\"TcpGenericServerApp\""
param **.sink_058.app[0].localAddress "\"\""
param **.sink_058.app[0].localPort 1100
param **.sink_058.app[0].replyDelay 0s
param **.sink_059.numApps 1
param **.sink_059.app[0].typename "\"TcpGenericServerApp\""
param **.sink_059.app[0].localAddress "\"\""
param **.sink_059.app[0].localPort 1100
param **.sink_059.app[0].replyDelay 0s
param **.sink_060.numApps 1
param **.sink_060.app[0].typename "\"TcpGenericServerApp\""
param **.sink_060.app[0].localAddress "\"\""
param **.sink_060.app[0].localPort 1100
param **.sink_060.app[0].replyDelay 0s
param **.sink_061.numApps 1
param **.sink_061.app[0].typename "\"TcpGenericServerApp\""
param **.sink_061.app[0].localAddress "\"\""
param **.sink_061.app[0].localPort 1100
param **.sink_061.app[0].replyDelay 0s
param **.sink_062.numApps 1
param **.sink_062.app[0].typename "\"TcpGenericServerApp\""
param **.sink_062.app[0].localAddress "\"\""
param **.sink_062.app[0].localPort 1100
param **.sink_062.app[0].replyDelay 0s
param **.sink_063.numApps 1
param **.sink_063.app[0].typename "\"TcpGenericServerApp\""
param **.sink_063.app[0].localAddress "\"\""
param **.sink_063.app[0].localPort 1100
param **.sink_063.app[0].replyDelay 0s
param **.sink_064.numApps 1
param **.sink_064.app[0].typename "\"TcpGenericServerApp\""
param **.sink_064.app[0].localAddress "\"\""
param **.sink_064.app[0].localPort 1100
param **.sink_064.app[0].replyDelay 0s
param **.sink_065.numApps 1
param **.sink_065.app[0].typename "\"TcpGenericServerApp\""
param **.sink_065.app[0].localAddress "\"\""
param **.sink_065.app[0].localPort 1100
param **.sink_065.app[0].replyDelay 0s
param **.sink_066.numApps 1
param **.sink_066.app[0].typename "\"TcpGenericServerApp\""
param **.sink_066.app[0].localAddress "\"\""
param **.sink_066.app[0].localPort 1100
param **.sink_066.app[0].replyDelay 0s
param **.sink_067.numApps 1
param **.sink_067.app[0].typename "\"TcpGenericServerApp\""
param **.sink_067.app[0].localAddress "\"\""
param **.sink_067.app[0].localPort 1100
param **.sink_067.app[0].replyDelay 0s
param **.sink_068.numApps 1
param **.sink_068.app[0].typename "\"TcpGenericServerApp\""
param **.sink_068.app[0].localAddress "\"\""
param **.sink_068.app[0].localPort 1100
param **.sink_068.app[0].replyDelay 0s
param **.sink_069.numApps 1
param **.sink_069.app[0].typename "\"TcpGenericServerApp\""
param **.sink_069.app[0].localAddress "\"\""
param **.sink_069.app[0].localPort 1100
param **.sink_069.app[0].replyDelay 0s
param **.sink_070.numApps 1
param **.sink_070.app[0].typename "\"TcpGenericServerApp\""
param **.sink_070.app[0].localAddress "\"\""
param **.sink_070.app[0].localPort 1100
param **.sink_070.app[0].replyDelay 0s
param **.sink_071.numApps 1
param **.sink_071.app[0].typename "\"TcpGenericServerApp\""
param **.sink_071.app[0].localAddress "\"\""
param **.sink_071.app[0].localPort 1100
param **.sink_071.app[0].replyDelay 0s
param **.sink_072.numApps 1
param **.sink_072.app[0].typename "\"TcpGenericServerApp\""
param **.sink_072.app[0].localAddress "\"\""
param **.sink_072.app[0].localPort 1100
param **.sink_072.app[0].replyDelay 0s
param **.sink_073.numApps 1
param **.sink_073.app[0].typename "\"TcpGenericServerApp\""
param **.sink_073.app[0].localAddress "\"\""
param **.sink_073.app[0].localPort 1100
param **.sink_073.app[0].replyDelay 0s
param **.sink_074.numApps 1
param **.sink_074.app[0].typename "\"TcpGenericServerApp\""
param **.sink_074.app[0].localAddress "\"\""
param **.sink_074.app[0].localPort 1100
param **.sink_074.app[0].replyDelay 0s
param **.sink_075.numApps 1
param **.sink_075.app[0].typename "\"TcpGenericServerApp\""
param **.sink_075.app[0].localAddress "\"\""
param **.sink_075.app[0].localPort 1100
param **.sink_075.app[0].replyDelay 0s
param **.sink_076.numApps 1
param **.sink_076.app[0].typename "\"TcpGenericServerApp\""
param **.sink_076.app[0].localAddress "\"\""
param **.sink_076.app[0].localPort 1100
param **.sink_076.app[0].replyDelay 0s
param **.sink_077.numApps 1
param **.sink_077.app[0].typename "\"TcpGenericServerApp\""
param **.sink_077.app[0].localAddress "\"\""
param **.sink_077.app[0].localPort 1100
param **.sink_077.app[0].replyDelay 0s
param **.sink_078.numApps 1
param **.sink_078.app[0].typename "\"TcpGenericServerApp\""
param **.sink_078.app[0].localAddress "\"\""
param **.sink_078.app[0].localPort 1100
param **.sink_078.app[0].replyDelay 0s
param **.sink_079.numApps 1
param **.sink_079.app[0].typename "\"TcpGenericServerApp\""
param **.sink_079.app[0].localAddress "\"\""
param **.sink_079.app[0].localPort 1100
param **.sink_079.app[0].replyDelay 0s
param **.sink_080.numApps 1
param **.sink_080.app[0].typename "\"TcpGenericServerApp\""
param **.sink_080.app[0].localAddress "\"\""
param **.sink_080.app[0].localPort 1100
param **.sink_080.app[0].replyDelay 0s
param **.sink_081.numApps 1
param **.sink_081.app[0].typename "\"TcpGenericServerApp\""
param **.sink_081.app[0].localAddress "\"\""
param **.sink_081.app[0].localPort 1100
param **.sink_081.app[0].replyDelay 0s
param **.sink_082.numApps 1
param **.sink_082.app[0].typename "\"TcpGenericServerApp\""
param **.sink_082.app[0].localAddress "\"\""
param **.sink_082.app[0].localPort 1100
param **.sink_082.app[0].replyDelay 0s
param **.sink_083.numApps 1
param **.sink_083.app[0].typename "\"TcpGenericServerApp\""
param **.sink_083.app[0].localAddress "\"\""
param **.sink_083.app[0].localPort 1100
param **.sink_083.app[0].replyDelay 0s
param **.sink_084.numApps 1
param **.sink_084.app[0].typename "\"TcpGenericServerApp\""
param **.sink_084.app[0].localAddress "\"\""
param **.sink_084.app[0].localPort 1100
param **.sink_084.app[0].replyDelay 0s
param **.sink_085.numApps 1
param **.sink_085.app[0].typename "\"TcpGenericServerApp\""
param **.sink_085.app[0].localAddress "\"\""
param **.sink_085.app[0].localPort 1100
param **.sink_085.app[0].replyDelay 0s
param **.sink_086.numApps 1
param **.sink_086.app[0].typename "\"TcpGenericServerApp\""
param **.sink_086.app[0].localAddress "\"\""
param **.sink_086.app[0].localPort 1100
param **.sink_086.app[0].replyDelay 0s
param **.sink_087.numApps 1
param **.sink_087.app[0].typename "\"TcpGenericServerApp\""
param **.sink_087.app[0].localAddress "\"\""
param **.sink_087.app[0].localPort 1100
param **.sink_087.app[0].replyDelay 0s
param **.sink_088.numApps 1
param **.sink_088.app[0].typename "\"TcpGenericServerApp\""
param **.sink_088.app[0].localAddress "\"\""
param **.sink_088.app[0].localPort 1100
param **.sink_088.app[0].replyDelay 0s
param **.sink_089.numApps 1
param **.sink_089.app[0].typename "\"TcpGenericServerApp\""
param **.sink_089.app[0].localAddress "\"\""
param **.sink_089.app[0].localPort 1100
param **.sink_089.app[0].replyDelay 0s
param **.sink_090.numApps 1
param **.sink_090.app[0].typename "\"TcpGenericServerApp\""
param **.sink_090.app[0].localAddress "\"\""
param **.sink_090.app[0].localPort 1100
param **.sink_090.app[0].replyDelay 0s
param **.sink_091.numApps 1
param **.sink_091.app[0].typename "\"TcpGenericServerApp\""
param **.sink_091.app[0].localAddress "\"\""
param **.sink_091.app[0].localPort 1100
param **.sink_091.app[0].replyDelay 0s
param **.sink_092.numApps 1
param **.sink_092.app[0].typename "\"TcpGenericServerApp\""
param **.sink_092.app[0].localAddress "\"\""
param **.sink_092.app[0].localPort 1100
param **.sink_092.app[0].replyDelay 0s
param **.sink_093.numApps 1
param **.sink_093.app[0].typename "\"TcpGenericServerApp\""
param **.sink_093.app[0].localAddress "\"\""
param **.sink_093.app[0].localPort 1100
param **.sink_093.app[0].replyDelay 0s
param **.sink_094.numApps 1
param **.sink_094.app[0].typename "\"TcpGenericServerApp\""
param **.sink_094.app[0].localAddress "\"\""
param **.sink_094.app[0].localPort 1100
param **.sink_094.app[0].replyDelay 0s
param **.sink_095.numApps 1
param **.sink_095.app[0].typename "\"TcpGenericServerApp\""
param **.sink_095.app[0].localAddress "\"\""
param **.sink_095.app[0].localPort 1100
param **.sink_095.app[0].replyDelay 0s
param **.sink_096.numApps 1
param **.sink_096.app[0].typename "\"TcpGenericServerApp\""
param **.sink_096.app[0].localAddress "\"\""
param **.sink_096.app[0].localPort 1100
param **.sink_096.app[0].replyDelay 0s
param **.sink_097.numApps 1
param **.sink_097.app[0].typename "\"TcpGenericServerApp\""
param **.sink_097.app[0].localAddress "\"\""
param **.sink_097.app[0].localPort 1100
param **.sink_097.app[0].replyDelay 0s
param **.sink_098.numApps 1
param **.sink_098.app[0].typename "\"TcpGenericServerApp\""
param **.sink_098.app[0].localAddress "\"\""
param **.sink_098.app[0].localPort 1100
param **.sink_098.app[0].replyDelay 0s
param **.sink_099.numApps 1
param **.sink_099.app[0].typename "\"TcpGenericServerApp\""
param **.sink_099.app[0].localAddress "\"\""
param **.sink_099.app[0].localPort 1100
param **.sink_099.app[0].replyDelay 0s
param **.sink_100.numApps 1
param **.sink_100.app[0].typename "\"TcpGenericServerApp\""
param **.sink_100.app[0].localAddress "\"\""
param **.sink_100.app[0].localPort 1100
param **.sink_100.app[0].replyDelay 0s
param **.sink_101.numApps 1
param **.sink_101.app[0].typename "\"TcpGenericServerApp\""
param **.sink_101.app[0].localAddress "\"\""
param **.sink_101.app[0].localPort 1100
param **.sink_101.app[0].replyDelay 0s
param **.sink_102.numApps 1
param **.sink_102.app[0].typename "\"TcpGenericServerApp\""
param **.sink_102.app[0].localAddress "\"\""
param **.sink_102.app[0].localPort 1100
param **.sink_102.app[0].replyDelay 0s
param **.sink_103.numApps 1
param **.sink_103.app[0].typename "\"TcpGenericServerApp\""
param **.sink_103.app[0].localAddress "\"\""
param **.sink_103.app[0].localPort 1100
param **.sink_103.app[0].replyDelay 0s
param **.sink_104.numApps 1
param **.sink_104.app[0].typename "\"TcpGenericServerApp\""
param **.sink_104.app[0].localAddress "\"\""
param **.sink_104.app[0].localPort 1100
param **.sink_104.app[0].replyDelay 0s
param **.sink_105.numApps 1
param **.sink_105.app[0].typename "\"TcpGenericServerApp\""
param **.sink_105.app[0].localAddress "\"\""
param **.sink_105.app[0].localPort 1100
param **.sink_105.app[0].replyDelay 0s
param **.sink_106.numApps 1
param **.sink_106.app[0].typename "\"TcpGenericServerApp\""
param **.sink_106.app[0].localAddress "\"\""
param **.sink_106.app[0].localPort 1100
param **.sink_106.app[0].replyDelay 0s
param **.sink_107.numApps 1
param **.sink_107.app[0].typename "\"TcpGenericServerApp\""
param **.sink_107.app[0].localAddress "\"\""
param **.sink_107.app[0].localPort 1100
param **.sink_107.app[0].replyDelay 0s
param **.sink_108.numApps 1
param **.sink_108.app[0].typename "\"TcpGenericServerApp\""
param **.sink_108.app[0].localAddress "\"\""
param **.sink_108.app[0].localPort 1100
param **.sink_108.app[0].replyDelay 0s
param **.sink_109.numApps 1
param **.sink_109.app[0].typename "\"TcpGenericServerApp\""
param **.sink_109.app[0].localAddress "\"\""
param **.sink_109.app[0].localPort 1100
param **.sink_109.app[0].replyDelay 0s
param **.sink_110.numApps 1
param **.sink_110.app[0].typename "\"TcpGenericServerApp\""
param **.sink_110.app[0].localAddress "\"\""
param **.sink_110.app[0].localPort 1100
param **.sink_110.app[0].replyDelay 0s
param **.sink_111.numApps 1
param **.sink_111.app[0].typename "\"TcpGenericServerApp\""
param **.sink_111.app[0].localAddress "\"\""
param **.sink_111.app[0].localPort 1100
param **.sink_111.app[0].replyDelay 0s
param **.sink_112.numApps 1
param **.sink_112.app[0].typename "\"TcpGenericServerApp\""
param **.sink_112.app[0].localAddress "\"\""
param **.sink_112.app[0].localPort 1100
param **.sink_112.app[0].replyDelay 0s
param **.sink_113.numApps 1
param **.sink_113.app[0].typename "\"TcpGenericServerApp\""
param **.sink_113.app[0].localAddress "\"\""
param **.sink_113.app[0].localPort 1100
param **.sink_113.app[0].replyDelay 0s
param **.sink_114.numApps 1
param **.sink_114.app[0].typename "\"TcpGenericServerApp\""
param **.sink_114.app[0].localAddress "\"\""
param **.sink_114.app[0].localPort 1100
param **.sink_114.app[0].replyDelay 0s
param **.sink_115.numApps 1
param **.sink_115.app[0].typename "\"TcpGenericServerApp\""
param **.sink_115.app[0].localAddress "\"\""
param **.sink_115.app[0].localPort 1100
param **.sink_115.app[0].replyDelay 0s
param **.sink_116.numApps 1
param **.sink_116.app[0].typename "\"TcpGenericServerApp\""
param **.sink_116.app[0].localAddress "\"\""
param **.sink_116.app[0].localPort 1100
param **.sink_116.app[0].replyDelay 0s
param **.sink_117.numApps 1
param **.sink_117.app[0].typename "\"TcpGenericServerApp\""
param **.sink_117.app[0].localAddress "\"\""
param **.sink_117.app[0].localPort 1100
param **.sink_117.app[0].replyDelay 0s
param **.sink_118.numApps 1
param **.sink_118.app[0].typename "\"TcpGenericServerApp\""
param **.sink_118.app[0].localAddress "\"\""
param **.sink_118.app[0].localPort 1100
param **.sink_118.app[0].replyDelay 0s
param **.sink_119.numApps 1
param **.sink_119.app[0].typename "\"TcpGenericServerApp\""
param **.sink_119.app[0].localAddress "\"\""
param **.sink_119.app[0].localPort 1100
param **.sink_119.app[0].replyDelay 0s
param **.sink_120.numApps 1
param **.sink_120.app[0].typename "\"TcpGenericServerApp\""
param **.sink_120.app[0].localAddress "\"\""
param **.sink_120.app[0].localPort 1100
param **.sink_120.app[0].replyDelay 0s
param **.sink_121.numApps 1
param **.sink_121.app[0].typename "\"TcpGenericServerApp\""
param **.sink_121.app[0].localAddress "\"\""
param **.sink_121.app[0].localPort 1100
param **.sink_121.app[0].replyDelay 0s
param **.sink_122.numApps 1
param **.sink_122.app[0].typename "\"TcpGenericServerApp\""
param **.sink_122.app[0].localAddress "\"\""
param **.sink_122.app[0].localPort 1100
param **.sink_122.app[0].replyDelay 0s
param **.sink_123.numApps 1
param **.sink_123.app[0].typename "\"TcpGenericServerApp\""
param **.sink_123.app[0].localAddress "\"\""
param **.sink_123.app[0].localPort 1100
param **.sink_123.app[0].replyDelay 0s
param **.sink_124.numApps 1
param **.sink_124.app[0].typename "\"TcpGenericServerApp\""
param **.sink_124.app[0].localAddress "\"\""
param **.sink_124.app[0].localPort 1100
param **.sink_124.app[0].replyDelay 0s
param **.sink_125.numApps 1
param **.sink_125.app[0].typename "\"TcpGenericServerApp\""
param **.sink_125.app[0].localAddress "\"\""
param **.sink_125.app[0].localPort 1100
param **.sink_125.app[0].replyDelay 0s
param **.sink_126.numApps 1
param **.sink_126.app[0].typename "\"TcpGenericServerApp\""
param **.sink_126.app[0].localAddress "\"\""
param **.sink_126.app[0].localPort 1100
param **.sink_126.app[0].replyDelay 0s
param **.sink_127.numApps 1
param **.sink_127.app[0].typename "\"TcpGenericServerApp\""
param **.sink_127.app[0].localAddress "\"\""
param **.sink_127.app[0].localPort 1100
param **.sink_127.app[0].replyDelay 0s
param **.sink_128.numApps 1
param **.sink_128.app[0].typename "\"TcpGenericServerApp\""
param **.sink_128.app[0].localAddress "\"\""
param **.sink_128.app[0].localPort 1100
param **.sink_128.app[0].replyDelay 0s
param **.sink_129.numApps 1
param **.sink_129.app[0].typename "\"TcpGenericServerApp\""
param **.sink_129.app[0].localAddress "\"\""
param **.sink_129.app[0].localPort 1100
param **.sink_129.app[0].replyDelay 0s
param **.sink_130.numApps 1
param **.sink_130.app[0].typename "\"TcpGenericServerApp\""
param **.sink_130.app[0].localAddress "\"\""
param **.sink_130.app[0].localPort 1100
param **.sink_130.app[0].replyDelay 0s
param **.sink_131.numApps 1
param **.sink_131.app[0].typename "\"TcpGenericServerApp\""
param **.sink_131.app[0].localAddress "\"\""
param **.sink_131.app[0].localPort 1100
param **.sink_131.app[0].replyDelay 0s
param **.sink_132.numApps 1
param **.sink_132.app[0].typename "\"TcpGenericServerApp\""
param **.sink_132.app[0].localAddress "\"\""
param **.sink_132.app[0].localPort 1100
param **.sink_132.app[0].replyDelay 0s
param **.sink_133.numApps 1
param **.sink_133.app[0].typename "\"TcpGenericServerApp\""
param **.sink_133.app[0].localAddress "\"\""
param **.sink_133.app[0].localPort 1100
param **.sink_133.app[0].replyDelay 0s
param **.sink_134.numApps 1
param **.sink_134.app[0].typename "\"TcpGenericServerApp\""
param **.sink_134.app[0].localAddress "\"\""
param **.sink_134.app[0].localPort 1100
param **.sink_134.app[0].replyDelay 0s
param **.sink_135.numApps 1
param **.sink_135.app[0].typename "\"TcpGenericServerApp\""
param **.sink_135.app[0].localAddress "\"\""
param **.sink_135.app[0].localPort 1100
param **.sink_135.app[0].replyDelay 0s
param **.sink_136.numApps 1
param **.sink_136.app[0].typename "\"TcpGenericServerApp\""
param **.sink_136.app[0].localAddress "\"\""
param **.sink_136.app[0].localPort 1100
param **.sink_136.app[0].replyDelay 0s
param **.sink_137.numApps 1
param **.sink_137.app[0].typename "\"TcpGenericServerApp\""
param **.sink_137.app[0].localAddress "\"\""
param **.sink_137.app[0].localPort 1100
param **.sink_137.app[0].replyDelay 0s
param **.sink_138.numApps 1
param **.sink_138.app[0].typename "\"TcpGenericServerApp\""
param **.sink_138.app[0].localAddress "\"\""
param **.sink_138.app[0].localPort 1100
param **.sink_138.app[0].replyDelay 0s
param **.sink_139.numApps 1
param **.sink_139.app[0].typename "\"TcpGenericServerApp\""
param **.sink_139.app[0].localAddress "\"\""
param **.sink_139.app[0].localPort 1100
param **.sink_139.app[0].replyDelay 0s
param **.sink_140.numApps 1
param **.sink_140.app[0].typename "\"TcpGenericServerApp\""
param **.sink_140.app[0].localAddress "\"\""
param **.sink_140.app[0].localPort 1100
param **.sink_140.app[0].replyDelay 0s
param **.sink_141.numApps 1
param **.sink_141.app[0].typename "\"TcpGenericServerApp\""
param **.sink_141.app[0].localAddress "\"\""
param **.sink_141.app[0].localPort 1100
param **.sink_141.app[0].replyDelay 0s
param **.sink_142.numApps 1
param **.sink_142.app[0].typename "\"TcpGenericServerApp\""
param **.sink_142.app[0].localAddress "\"\""
param **.sink_142.app[0].localPort 1100
param **.sink_142.app[0].replyDelay 0s
param **.sink_143.numApps 1
param **.sink_143.app[0].typename "\"TcpGenericServerApp\""
param **.sink_143.app[0].localAddress "\"\""
param **.sink_143.app[0].localPort 1100
param **.sink_143.app[0].replyDelay 0s
param **.sink_144.numApps 1
param **.sink_144.app[0].typename "\"TcpGenericServerApp\""
param **.sink_144.app[0].localAddress "\"\""
param **.sink_144.app[0].localPort 1100
param **.sink_144.app[0].replyDelay 0s
param **.sink_145.numApps 1
param **.sink_145.app[0].typename "\"TcpGenericServerApp\""
param **.sink_145.app[0].localAddress "\"\""
param **.sink_145.app[0].localPort 1100
param **.sink_145.app[0].replyDelay 0s
param **.sink_146.numApps 1
param **.sink_146.app[0].typename "\"TcpGenericServerApp\""
param **.sink_146.app[0].localAddress "\"\""
param **.sink_146.app[0].localPort 1100
param **.sink_146.app[0].replyDelay 0s
param **.sink_147.numApps 1
param **.sink_147.app[0].typename "\"TcpGenericServerApp\""
param **.sink_147.app[0].localAddress "\"\""
param **.sink_147.app[0].localPort 1100
param **.sink_147.app[0].replyDelay 0s
param **.sink_148.numApps 1
param **.sink_148.app[0].typename "\"TcpGenericServerApp\""
param **.sink_148.app[0].localAddress "\"\""
param **.sink_148.app[0].localPort 1100
param **.sink_148.app[0].replyDelay 0s
param **.sink_149.numApps 1
param **.sink_149.app[0].typename "\"TcpGenericServerApp\""
param **.sink_149.app[0].localAddress "\"\""
param **.sink_149.app[0].localPort 1100
param **.sink_149.app[0].replyDelay 0s
param **.sink_150.numApps 1
param **.sink_150.app[0].typename "\"TcpGenericServerApp\""
param **.sink_150.app[0].localAddress "\"\""
param **.sink_150.app[0].localPort 1100
param **.sink_150.app[0].replyDelay 0s
param **.sink_151.numApps 1
param **.sink_151.app[0].typename "\"TcpGenericServerApp\""
param **.sink_151.app[0].localAddress "\"\""
param **.sink_151.app[0].localPort 1100
param **.sink_151.app[0].replyDelay 0s
param **.sink_152.numApps 1
param **.sink_152.app[0].typename "\"TcpGenericServerApp\""
param **.sink_152.app[0].localAddress "\"\""
param **.sink_152.app[0].localPort 1100
param **.sink_152.app[0].replyDelay 0s
param **.sink_153.numApps 1
param **.sink_153.app[0].typename "\"TcpGenericServerApp\""
param **.sink_153.app[0].localAddress "\"\""
param **.sink_153.app[0].localPort 1100
param **.sink_153.app[0].replyDelay 0s
param **.sink_154.numApps 1
param **.sink_154.app[0].typename "\"TcpGenericServerApp\""
param **.sink_154.app[0].localAddress "\"\""
param **.sink_154.app[0].localPort 1100
param **.sink_154.app[0].replyDelay 0s
param **.sink_155.numApps 1
param **.sink_155.app[0].typename "\"TcpGenericServerApp\""
param **.sink_155.app[0].localAddress "\"\""
param **.sink_155.app[0].localPort 1100
param **.sink_155.app[0].replyDelay 0s
param **.sink_156.numApps 1
param **.sink_156.app[0].typename "\"TcpGenericServerApp\""
param **.sink_156.app[0].localAddress "\"\""
param **.sink_156.app[0].localPort 1100
param **.sink_156.app[0].replyDelay 0s
param **.sink_157.numApps 1
param **.sink_157.app[0].typename "\"TcpGenericServerApp\""
param **.sink_157.app[0].localAddress "\"\""
param **.sink_157.app[0].localPort 1100
param **.sink_157.app[0].replyDelay 0s
param **.sink_158.numApps 1
param **.sink_158.app[0].typename "\"TcpGenericServerApp\""
param **.sink_158.app[0].localAddress "\"\""
param **.sink_158.app[0].localPort 1100
param **.sink_158.app[0].replyDelay 0s
param **.sink_159.numApps 1
param **.sink_159.app[0].typename "\"TcpGenericServerApp\""
param **.sink_159.app[0].localAddress "\"\""
param **.sink_159.app[0].localPort 1100
param **.sink_159.app[0].replyDelay 0s
param **.sink_160.numApps 1
param **.sink_160.app[0].typename "\"TcpGenericServerApp\""
param **.sink_160.app[0].localAddress "\"\""
param **.sink_160.app[0].localPort 1100
param **.sink_160.app[0].replyDelay 0s
param **.sink_161.numApps 1
param **.sink_161.app[0].typename "\"TcpGenericServerApp\""
param **.sink_161.app[0].localAddress "\"\""
param **.sink_161.app[0].localPort 1100
param **.sink_161.app[0].replyDelay 0s
param **.sink_162.numApps 1
param **.sink_162.app[0].typename "\"TcpGenericServerApp\""
param **.sink_162.app[0].localAddress "\"\""
param **.sink_162.app[0].localPort 1100
param **.sink_162.app[0].replyDelay 0s
param **.sink_163.numApps 1
param **.sink_163.app[0].typename "\"TcpGenericServerApp\""
param **.sink_163.app[0].localAddress "\"\""
param **.sink_163.app[0].localPort 1100
param **.sink_163.app[0].replyDelay 0s
param **.sink_164.numApps 1
param **.sink_164.app[0].typename "\"TcpGenericServerApp\""
param **.sink_164.app[0].localAddress "\"\""
param **.sink_164.app[0].localPort 1100
param **.sink_164.app[0].replyDelay 0s
param **.sink_165.numApps 1
param **.sink_165.app[0].typename "\"TcpGenericServerApp\""
param **.sink_165.app[0].localAddress "\"\""
param **.sink_165.app[0].localPort 1100
param **.sink_165.app[0].replyDelay 0s
param **.sink_166.numApps 1
param **.sink_166.app[0].typename "\"TcpGenericServerApp\""
param **.sink_166.app[0].localAddress "\"\""
param **.sink_166.app[0].localPort 1100
param **.sink_166.app[0].replyDelay 0s
param **.sink_167.numApps 1
param **.sink_167.app[0].typename "\"TcpGenericServerApp\""
param **.sink_167.app[0].localAddress "\"\""
param **.sink_167.app[0].localPort 1100
param **.sink_167.app[0].replyDelay 0s
param **.sink_168.numApps 1
param **.sink_168.app[0].typename "\"TcpGenericServerApp\""
param **.sink_168.app[0].localAddress "\"\""
param **.sink_168.app[0].localPort 1100
param **.sink_168.app[0].replyDelay 0s
param **.sink_169.numApps 1
param **.sink_169.app[0].typename "\"TcpGenericServerApp\""
param **.sink_169.app[0].localAddress "\"\""
param **.sink_169.app[0].localPort 1100
param **.sink_169.app[0].replyDelay 0s
param **.sink_170.numApps 1
param **.sink_170.app[0].typename "\"TcpGenericServerApp\""
param **.sink_170.app[0].localAddress "\"\""
param **.sink_170.app[0].localPort 1100
param **.sink_170.app[0].replyDelay 0s
param **.source_000.numApps 1
param **.source_000.app[0].typename "\"TcpBasicClientApp\""
param **.source_000.app[0].localAddress "\"\""
param **.source_000.app[0].connectAddress "\"sink_000\""
param **.source_000.app[0].connectPort 1100
param **.source_000.app[0].startTime 0s
param **.source_000.app[0].idleInterval 1000s
param **.source_000.app[0].requestLength 1300B
param **.source_000.app[0].replyLength 20B
param **.source_000.app[0].thinkTime 0s
param **.source_000.app[0].numRequestsPerSession 13
param **.source_001.numApps 1
param **.source_001.app[0].typename "\"TcpBasicClientApp\""
param **.source_001.app[0].localAddress "\"\""
param **.source_001.app[0].connectAddress "\"sink_001\""
param **.source_001.app[0].connectPort 1100
param **.source_001.app[0].startTime 0s
param **.source_001.app[0].idleInterval 1000s
param **.source_001.app[0].requestLength 1300B
param **.source_001.app[0].replyLength 20B
param **.source_001.app[0].thinkTime 0s
param **.source_001.app[0].numRequestsPerSession 40
param **.source_002.numApps 1
param **.source_002.app[0].typename "\"TcpBasicClientApp\""
param **.source_002.app[0].localAddress "\"\""
param **.source_002.app[0].connectAddress "\"sink_002\""
param **.source_002.app[0].connectPort 1100
param **.source_002.app[0].startTime 0s
param **.source_002.app[0].idleInterval 1000s
param **.source_002.app[0].requestLength 1300B
param **.source_002.app[0].replyLength 20B
param **.source_002.app[0].thinkTime 0s
param **.source_002.app[0].numRequestsPerSession 36
param **.source_003.numApps 1
param **.source_003.app[0].typename "\"TcpBasicClientApp\""
param **.source_003.app[0].localAddress "\"\""
param **.source_003.app[0].connectAddress "\"sink_003\""
param **.source_003.app[0].connectPort 1100
param **.source_003.app[0].startTime 0s
param **.source_003.app[0].idleInterval 1000s
param **.source_003.app[0].requestLength 1300B
param **.source_003.app[0].replyLength 20B
param **.source_003.app[0].thinkTime 0s
param **.source_003.app[0].numRequestsPerSession 5
param **.source_004.numApps 1
param **.source_004.app[0].typename "\"TcpBasicClientApp\""
param **.source_004.app[0].localAddress "\"\""
param **.source_004.app[0].connectAddress "\"sink_004\""
param **.source_004.app[0].connectPort 1100
param **.source_004.app[0].startTime 0s
param **.source_004.app[0].idleInterval 1000s
param **.source_004.app[0].requestLength 1300B
param **.source_004.app[0].replyLength 20B
param **.source_004.app[0].thinkTime 0s
param **.source_004.app[0].numRequestsPerSession 15
param **.source_005.numApps 1
param **.source_005.app[0].typename "\"TcpBasicClientApp\""
param **.source_005.app[0].localAddress "\"\""
param **.source_005.app[0].connectAddress "\"sink_005\""
param **.source_005.app[0].connectPort 1100
param **.source_005.app[0].startTime 0s
param **.source_005.app[0].idleInterval 1000s
param **.source_005.app[0].requestLength 1300B
param **.source_005.app[0].replyLength 20B
param **.source_005.app[0].thinkTime 0s
param **.source_005.app[0].numRequestsPerSession 8
param **.source_006.numApps 1
param **.source_006.app[0].typename "\"TcpBasicClientApp\""
param **.source_006.app[0].localAddress "\"\""
param **.source_006.app[0].connectAddress "\"sink_006\""
param **.source_006.app[0].connectPort 1100
param **.source_006.app[0].startTime 0s
param **.source_006.app[0].idleInterval 1000s
param **.source_006.app[0].requestLength 1300B
param **.source_006.app[0].replyLength 20B
param **.source_006.app[0].thinkTime 0s
param **.source_006.app[0].numRequestsPerSession 2
param **.source_007.numApps 1
param **.source_007.app[0].typename "\"TcpBasicClientApp\""
param **.source_007.app[0].localAddress "\"\""
param **.source_007.app[0].connectAddress "\"sink_007\""
param **.source_007.app[0].connectPort 1100
param **.source_007.app[0].startTime 0s
param **.source_007.app[0].idleInterval 1000s
param **.source_007.app[0].requestLength 1300B
param **.source_007.app[0].replyLength 20B
param **.source_007.app[0].thinkTime 0s
param **.source_007.app[0].numRequestsPerSession 33
param **.source_008.numApps 1
param **.source_008.app[0].typename "\"TcpBasicClientApp\""
param **.source_008.app[0].localAddress "\"\""
param **.source_008.app[0].connectAddress "\"sink_008\""
param **.source_008.app[0].connectPort 1100
param **.source_008.app[0].startTime 0s
param **.source_008.app[0].idleInterval 1000s
param **.source_008.app[0].requestLength 1300B
param **.source_008.app[0].replyLength 20B
param **.source_008.app[0].thinkTime 0s
param **.source_008.app[0].numRequestsPerSession 12
param **.source_009.numApps 1
param **.source_009.app[0].typename "\"TcpBasicClientApp\""
param **.source_009.app[0].localAddress "\"\""
param **.source_009.app[0].connectAddress "\"sink_009\""
param **.source_009.app[0].connectPort 1100
param **.source_009.app[0].startTime 0s
param **.source_009.app[0].idleInterval 1000s
param **.source_009.app[0].requestLength 1300B
param **.source_009.app[0].replyLength 20B
param **.source_009.app[0].thinkTime 0s
param **.source_009.app[0].numRequestsPerSession 70
param **.source_010.numApps 1
param **.source_010.app[0].typename "\"TcpBasicClientApp\""
param **.source_010.app[0].localAddress "\"\""
param **.source_010.app[0].connectAddress "\"sink_010\""
param **.source_010.app[0].connectPort 1100
param **.source_010.app[0].startTime 0s
param **.source_010.app[0].idleInterval 1000s
param **.source_010.app[0].requestLength 1300B
param **.source_010.app[0].replyLength 20B
param **.source_010.app[0].thinkTime 0s
param **.source_010.app[0].numRequestsPerSession 2
param **.source_011.numApps 1
param **.source_011.app[0].typename "\"TcpBasicClientApp\""
param **.source_011.app[0].localAddress "\"\""
param **.source_011.app[0].connectAddress "\"sink_011\""
param **.source_011.app[0].connectPort 1100
param **.source_011.app[0].startTime 0s
param **.source_011.app[0].idleInterval 1000s
param **.source_011.app[0].requestLength 1300B
param **.source_011.app[0].replyLength 20B
param **.source_011.app[0].thinkTime 0s
param **.source_011.app[0].numRequestsPerSession 1
param **.source_012.numApps 1
param **.source_012.app[0].typename "\"TcpBasicClientApp\""
param **.source_012.app[0].localAddress "\"\""
param **.source_012.app[0].connectAddress "\"sink_012\""
param **.source_012.app[0].connectPort 1100
param **.source_012.app[0].startTime 0s
param **.source_012.app[0].idleInterval 1000s
param **.source_012.app[0].requestLength 1300B
param **.source_012.app[0].replyLength 20B
param **.source_012.app[0].thinkTime 0s
param **.source_012.app[0].numRequestsPerSession 3
param **.source_013.numApps 1
param **.source_013.app[0].typename "\"TcpBasicClientApp\""
param **.source_013.app[0].localAddress "\"\""
param **.source_013.app[0].connectAddress "\"sink_013\""
param **.source_013.app[0].connectPort 1100
param **.source_013.app[0].startTime 0s
param **.source_013.app[0].idleInterval 1000s
param **.source_013.app[0].requestLength 1300B
param **.source_013.app[0].replyLength 20B
param **.source_013.app[0].thinkTime 0s
param **.source_013.app[0].numRequestsPerSession 538
param **.source_014.numApps 1
param **.source_014.app[0].typename "\"TcpBasicClientApp\""
param **.source_014.app[0].localAddress "\"\""
param **.source_014.app[0].connectAddress "\"sink_014\""
param **.source_014.app[0].connectPort 1100
param **.source_014.app[0].startTime 0s
param **.source_014.app[0].idleInterval 1000s
param **.source_014.app[0].requestLength 1300B
param **.source_014.app[0].replyLength 20B
param **.source_014.app[0].thinkTime 0s
param **.source_014.app[0].numRequestsPerSession 25
param **.source_015.numApps 1
param **.source_015.app[0].typename "\"TcpBasicClientApp\""
param **.source_015.app[0].localAddress "\"\""
param **.source_015.app[0].connectAddress "\"sink_015\""
param **.source_015.app[0].connectPort 1100
param **.source_015.app[0].startTime 0s
param **.source_015.app[0].idleInterval 1000s
param **.source_015.app[0].requestLength 1300B
param **.source_015.app[0].replyLength 20B
param **.source_015.app[0].thinkTime 0s
param **.source_015.app[0].numRequestsPerSession 746
param **.source_016.numApps 1
param **.source_016.app[0].typename "\"TcpBasicClientApp\""
param **.source_016.app[0].localAddress "\"\""
param **.source_016.app[0].connectAddress "\"sink_016\""
param **.source_016.app[0].connectPort 1100
param **.source_016.app[0].startTime 0s
param **.source_016.app[0].idleInterval 1000s
param **.source_016.app[0].requestLength 1300B
param **.source_016.app[0].replyLength 20B
param **.source_016.app[0].thinkTime 0s
param **.source_016.app[0].numRequestsPerSession 10
param **.source_017.numApps 1
param **.source_017.app[0].typename "\"TcpBasicClientApp\""
param **.source_017.app[0].localAddress "\"\""
param **.source_017.app[0].connectAddress "\"sink_017\""
param **.source_017.app[0].connectPort 1100
param **.source_017.app[0].startTime 0s
param **.source_017.app[0].idleInterval 1000s
param **.source_017.app[0].requestLength 1300B
param **.source_017.app[0].replyLength 20B
param **.source_017.app[0].thinkTime 0s
param **.source_017.app[0].numRequestsPerSession 15
param **.source_018.numApps 1
param **.source_018.app[0].typename "\"TcpBasicClientApp\""
param **.source_018.app[0].localAddress "\"\""
param **.source_018.app[0].connectAddress "\"sink_018\""
param **.source_018.app[0].connectPort 1100
param **.source_018.app[0].startTime 0s
param **.source_018.app[0].idleInterval 1000s
param **.source_018.app[0].requestLength 1300B
param **.source_018.app[0].replyLength 20B
param **.source_018.app[0].thinkTime 0s
param **.source_018.app[0].numRequestsPerSession 1
param **.source_019.numApps 1
param **.source_019.app[0].typename "\"TcpBasicClientApp\""
param **.source_019.app[0].localAddress "\"\""
param **.source_019.app[0].connectAddress "\"sink_019\""
param **.source_019.app[0].connectPort 1100
param **.source_019.app[0].startTime 0s
param **.source_019.app[0].idleInterval 1000s
param **.source_019.app[0].requestLength 1300B
param **.source_019.app[0].replyLength 20B
param **.source_019.app[0].thinkTime 0s
param **.source_019.app[0].numRequestsPerSession 86
param **.source_020.numApps 1
param **.source_020.app[0].typename "\"TcpBasicClientApp\""
param **.source_020.app[0].localAddress "\"\""
param **.source_020.app[0].connectAddress "\"sink_020\""
param **.source_020.app[0].connectPort 1100
param **.source_020.app[0].startTime 0s
param **.source_020.app[0].idleInterval 1000s
param **.source_020.app[0].requestLength 1300B
param **.source_020.app[0].replyLength 20B
param **.source_020.app[0].thinkTime 0s
param **.source_020.app[0].numRequestsPerSession 222
param **.source_021.numApps 1
param **.source_021.app[0].typename "\"TcpBasicClientApp\""
param **.source_021.app[0].localAddress "\"\""
param **.source_021.app[0].connectAddress "\"sink_021\""
param **.source_021.app[0].connectPort 1100
param **.source_021.app[0].startTime 0s
param **.source_021.app[0].idleInterval 1000s
param **.source_021.app[0].requestLength 1300B
param **.source_021.app[0].replyLength 20B
param **.source_021.app[0].thinkTime 0s
param **.source_021.app[0].numRequestsPerSession 30
param **.source_022.numApps 1
param **.source_022.app[0].typename "\"TcpBasicClientApp\""
param **.source_022.app[0].localAddress "\"\""
param **.source_022.app[0].connectAddress "\"sink_022\""
param **.source_022.app[0].connectPort 1100
param **.source_022.app[0].startTime 0s
param **.source_022.app[0].idleInterval 1000s
param **.source_022.app[0].requestLength 1300B
param **.source_022.app[0].replyLength 20B
param **.source_022.app[0].thinkTime 0s
param **.source_022.app[0].numRequestsPerSession 34
param **.source_023.numApps 1
param **.source_023.app[0].typename "\"TcpBasicClientApp\""
param **.source_023.app[0].localAddress "\"\""
param **.source_023.app[0].connectAddress "\"sink_023\""
param **.source_023.app[0].connectPort 1100
param **.source_023.app[0].startTime 0s
param **.source_023.app[0].idleInterval 1000s
param **.source_023.app[0].requestLength 1300B
param **.source_023.app[0].replyLength 20B
param **.source_023.app[0].thinkTime 0s
param **.source_023.app[0].numRequestsPerSession 13
param **.source_024.numApps 1
param **.source_024.app[0].typename "\"TcpBasicClientApp\""
param **.source_024.app[0].localAddress "\"\""
param **.source_024.app[0].connectAddress "\"sink_024\""
param **.source_024.app[0].connectPort 1100
param **.source_024.app[0].startTime 0s
param **.source_024.app[0].idleInterval 1000s
param **.source_024.app[0].requestLength 1300B
param **.source_024.app[0].replyLength 20B
param **.source_024.app[0].thinkTime 0s
param **.source_024.app[0].numRequestsPerSession 16
param **.source_025.numApps 1
param **.source_025.app[0].typename "\"TcpBasicClientApp\""
param **.source_025.app[0].localAddress "\"\""
param **.source_025.app[0].connectAddress "\"sink_025\""
param **.source_025.app[0].connectPort 1100
param **.source_025.app[0].startTime 0s
param **.source_025.app[0].idleInterval 1000s
param **.source_025.app[0].requestLength 1300B
param **.source_025.app[0].replyLength 20B
param **.source_025.app[0].thinkTime 0s
param **.source_025.app[0].numRequestsPerSession 50
param **.source_026.numApps 1
param **.source_026.app[0].typename "\"TcpBasicClientApp\""
param **.source_026.app[0].localAddress "\"\""
param **.source_026.app[0].connectAddress "\"sink_026\""
param **.source_026.app[0].connectPort 1100
param **.source_026.app[0].startTime 0s
param **.source_026.app[0].idleInterval 1000s
param **.source_026.app[0].requestLength 1300B
param **.source_026.app[0].replyLength 20B
param **.source_026.app[0].thinkTime 0s
param **.source_026.app[0].numRequestsPerSession 84
param **.source_027.numApps 1
param **.source_027.app[0].typename "\"TcpBasicClientApp\""
param **.source_027.app[0].localAddress "\"\""
param **.source_027.app[0].connectAddress "\"sink_027\""
param **.source_027.app[0].connectPort 1100
param **.source_027.app[0].startTime 0s
param **.source_027.app[0].idleInterval 1000s
param **.source_027.app[0].requestLength 1300B
param **.source_027.app[0].replyLength 20B
param **.source_027.app[0].thinkTime 0s
param **.source_027.app[0].numRequestsPerSession 2
param **.source_028.numApps 1
param **.source_028.app[0].typename "\"TcpBasicClientApp\""
param **.source_028.app[0].localAddress "\"\""
param **.source_028.app[0].connectAddress "\"sink_028\""
param **.source_028.app[0].connectPort 1100
param **.source_028.app[0].startTime 0s
param **.source_028.app[0].idleInterval 1000s
param **.source_028.app[0].requestLength 1300B
param **.source_028.app[0].replyLength 20B
param **.source_028.app[0].thinkTime 0s
param **.source_028.app[0].numRequestsPerSession 4
param **.source_029.numApps 1
param **.source_029.app[0].typename "\"TcpBasicClientApp\""
param **.source_029.app[0].localAddress "\"\""
param **.source_029.app[0].connectAddress "\"sink_029\""
param **.source_029.app[0].connectPort 1100
param **.source_029.app[0].startTime 0s
param **.source_029.app[0].idleInterval 1000s
param **.source_029.app[0].requestLength 1300B
param **.source_029.app[0].replyLength 20B
param **.source_029.app[0].thinkTime 0s
param **.source_029.app[0].numRequestsPerSession 211
param **.source_030.numApps 1
param **.source_030.app[0].typename "\"TcpBasicClientApp\""
param **.source_030.app[0].localAddress "\"\""
param **.source_030.app[0].connectAddress "\"sink_030\""
param **.source_030.app[0].connectPort 1100
param **.source_030.app[0].startTime 0s
param **.source_030.app[0].idleInterval 1000s
param **.source_030.app[0].requestLength 1300B
param **.source_030.app[0].replyLength 20B
param **.source_030.app[0].thinkTime 0s
param **.source_030.app[0].numRequestsPerSession 105
param **.source_031.numApps 1
param **.source_031.app[0].typename "\"TcpBasicClientApp\""
param **.source_031.app[0].localAddress "\"\""
param **.source_031.app[0].connectAddress "\"sink_031\""
param **.source_031.app[0].connectPort 1100
param **.source_031.app[0].startTime 0s
param **.source_031.app[0].idleInterval 1000s
param **.source_031.app[0].requestLength 1300B
param **.source_031.app[0].replyLength 20B
param **.source_031.app[0].thinkTime 0s
param **.source_031.app[0].numRequestsPerSession 12
param **.source_032.numApps 1
param **.source_032.app[0].typename "\"TcpBasicClientApp\""
param **.source_032.app[0].localAddress "\"\""
param **.source_032.app[0].connectAddress "\"sink_032\""
param **.source_032.app[0].connectPort 1100
param **.source_032.app[0].startTime 0s
param **.source_032.app[0].idleInterval 1000s
param **.source_032.app[0].requestLength 1300B
param **.source_032.app[0].replyLength 20B
param **.source_032.app[0].thinkTime 0s
param **.source_032.app[0].numRequestsPerSession 5
param **.source_033.numApps 1
param **.source_033.app[0].typename "\"TcpBasicClientApp\""
param **.source_033.app[0].localAddress "\"\""
param **.source_033.app[0].connectAddress "\"sink_033\""
param **.source_033.app[0].connectPort 1100
param **.source_033.app[0].startTime 0s
param **.source_033.app[0].idleInterval 1000s
param **.source_033.app[0].requestLength 1300B
param **.source_033.app[0].replyLength 20B
param **.source_033.app[0].thinkTime 0s
param **.source_033.app[0].numRequestsPerSession 2
param **.source_034.numApps 1
param **.source_034.app[0].typename "\"TcpBasicClientApp\""
param **.source_034.app[0].localAddress "\"\""
param **.source_034.app[0].connectAddress "\"sink_034\""
param **.source_034.app[0].connectPort 1100
param **.source_034.app[0].startTime 0s
param **.source_034.app[0].idleInterval 1000s
param **.source_034.app[0].requestLength 1300B
param **.source_034.app[0].replyLength 20B
param **.source_034.app[0].thinkTime 0s
param **.source_034.app[0].numRequestsPerSession 16
param **.source_035.numApps 1
param **.source_035.app[0].typename "\"TcpBasicClientApp\""
param **.source_035.app[0].localAddress "\"\""
param **.source_035.app[0].connectAddress "\"sink_035\""
param **.source_035.app[0].connectPort 1100
param **.source_035.app[0].startTime 0s
param **.source_035.app[0].idleInterval 1000s
param **.source_035.app[0].requestLength 1300B
param **.source_035.app[0].replyLength 20B
param **.source_035.app[0].thinkTime 0s
param **.source_035.app[0].numRequestsPerSession 20
param **.source_036.numApps 1
param **.source_036.app[0].typename "\"TcpBasicClientApp\""
param **.source_036.app[0].localAddress "\"\""
param **.source_036.app[0].connectAddress "\"sink_036\""
param **.source_036.app[0].connectPort 1100
param **.source_036.app[0].startTime 0s
param **.source_036.app[0].idleInterval 1000s
param **.source_036.app[0].requestLength 1300B
param **.source_036.app[0].replyLength 20B
param **.source_036.app[0].thinkTime 0s
param **.source_036.app[0].numRequestsPerSession 4
param **.source_037.numApps 1
param **.source_037.app[0].typename "\"TcpBasicClientApp\""
param **.source_037.app[0].localAddress "\"\""
param **.source_037.app[0].connectAddress "\"sink_037\""
param **.source_037.app[0].connectPort 1100
param **.source_037.app[0].startTime 0s
param **.source_037.app[0].idleInterval 1000s
param **.source_037.app[0].requestLength 1300B
param **.source_037.app[0].replyLength 20B
param **.source_037.app[0].thinkTime 0s
param **.source_037.app[0].numRequestsPerSession 5
param **.source_038.numApps 1
param **.source_038.app[0].typename "\"TcpBasicClientApp\""
param **.source_038.app[0].localAddress "\"\""
param **.source_038.app[0].connectAddress "\"sink_038\""
param **.source_038.app[0].connectPort 1100
param **.source_038.app[0].startTime 0s
param **.source_038.app[0].idleInterval 1000s
param **.source_038.app[0].requestLength 1300B
param **.source_038.app[0].replyLength 20B
param **.source_038.app[0].thinkTime 0s
param **.source_038.app[0].numRequestsPerSession 30
param **.source_039.numApps 1
param **.source_039.app[0].typename "\"TcpBasicClientApp\""
param **.source_039.app[0].localAddress "\"\""
param **.source_039.app[0].connectAddress "\"sink_039\""
param **.source_039.app[0].connectPort 1100
param **.source_039.app[0].startTime 0s
param **.source_039.app[0].idleInterval 1000s
param **.source_039.app[0].requestLength 1300B
param **.source_039.app[0].replyLength 20B
param **.source_039.app[0].thinkTime 0s
param **.source_039.app[0].numRequestsPerSession 2
param **.source_040.numApps 1
param **.source_040.app[0].typename "\"TcpBasicClientApp\""
param **.source_040.app[0].localAddress "\"\""
param **.source_040.app[0].connectAddress "\"sink_040\""
param **.source_040.app[0].connectPort 1100
param **.source_040.app[0].startTime 0s
param **.source_040.app[0].idleInterval 1000s
param **.source_040.app[0].requestLength 1300B
param **.source_040.app[0].replyLength 20B
param **.source_040.app[0].thinkTime 0s
param **.source_040.app[0].numRequestsPerSession 9
param **.source_041.numApps 1
param **.source_041.app[0].typename "\"TcpBasicClientApp\""
param **.source_041.app[0].localAddress "\"\""
param **.source_041.app[0].connectAddress "\"sink_041\""
param **.source_041.app[0].connectPort 1100
param **.source_041.app[0].startTime 0s
param **.source_041.app[0].idleInterval 1000s
param **.source_041.app[0].requestLength 1300B
param **.source_041.app[0].replyLength 20B
param **.source_041.app[0].thinkTime 0s
param **.source_041.app[0].numRequestsPerSession 9
param **.source_042.numApps 1
param **.source_042.app[0].typename "\"TcpBasicClientApp\""
param **.source_042.app[0].localAddress "\"\""
param **.source_042.app[0].connectAddress "\"sink_042\""
param **.source_042.app[0].connectPort 1100
param **.source_042.app[0].startTime 0s
param **.source_042.app[0].idleInterval 1000s
param **.source_042.app[0].requestLength 1300B
param **.source_042.app[0].replyLength 20B
param **.source_042.app[0].thinkTime 0s
param **.source_042.app[0].numRequestsPerSession 2
param **.source_043.numApps 1
param **.source_043.app[0].typename "\"TcpBasicClientApp\""
param **.source_043.app[0].localAddress "\"\""
param **.source_043.app[0].connectAddress "\"sink_043\""
param **.source_043.app[0].connectPort 1100
param **.source_043.app[0].startTime 0s
param **.source_043.app[0].idleInterval 1000s
param **.source_043.app[0].requestLength 1300B
param **.source_043.app[0].replyLength 20B
param **.source_043.app[0].thinkTime 0s
param **.source_043.app[0].numRequestsPerSession 4
param **.source_044.numApps 1
param **.source_044.app[0].typename "\"TcpBasicClientApp\""
param **.source_044.app[0].localAddress "\"\""
param **.source_044.app[0].connectAddress "\"sink_044\""
param **.source_044.app[0].connectPort 1100
param **.source_044.app[0].startTime 0s
param **.source_044.app[0].idleInterval 1000s
param **.source_044.app[0].requestLength 1300B
param **.source_044.app[0].replyLength 20B
param **.source_044.app[0].thinkTime 0s
param **.source_044.app[0].numRequestsPerSession 4
param **.source_045.numApps 1
param **.source_045.app[0].typename "\"TcpBasicClientApp\""
param **.source_045.app[0].localAddress "\"\""
param **.source_045.app[0].connectAddress "\"sink_045\""
param **.source_045.app[0].connectPort 1100
param **.source_045.app[0].startTime 0s
param **.source_045.app[0].idleInterval 1000s
param **.source_045.app[0].requestLength 1300B
param **.source_045.app[0].replyLength 20B
param **.source_045.app[0].thinkTime 0s
param **.source_045.app[0].numRequestsPerSession 15
param **.source_046.numApps 1
param **.source_046.app[0].typename "\"TcpBasicClientApp\""
param **.source_046.app[0].localAddress "\"\""
param **.source_046.app[0].connectAddress "\"sink_046\""
param **.source_046.app[0].connectPort 1100
param **.source_046.app[0].startTime 0s
param **.source_046.app[0].idleInterval 1000s
param **.source_046.app[0].requestLength 1300B
param **.source_046.app[0].replyLength 20B
param **.source_046.app[0].thinkTime 0s
param **.source_046.app[0].numRequestsPerSession 2
param **.source_047.numApps 1
param **.source_047.app[0].typename "\"TcpBasicClientApp\""
param **.source_047.app[0].localAddress "\"\""
param **.source_047.app[0].connectAddress "\"sink_047\""
param **.source_047.app[0].connectPort 1100
param **.source_047.app[0].startTime 0s
param **.source_047.app[0].idleInterval 1000s
param **.source_047.app[0].requestLength 1300B
param **.source_047.app[0].replyLength 20B
param **.source_047.app[0].thinkTime 0s
param **.source_047.app[0].numRequestsPerSession 9
param **.source_048.numApps 1
param **.source_048.app[0].typename "\"TcpBasicClientApp\""
param **.source_048.app[0].localAddress "\"\""
param **.source_048.app[0].connectAddress "\"sink_048\""
param **.source_048.app[0].connectPort 1100
param **.source_048.app[0].startTime 0s
param **.source_048.app[0].idleInterval 1000s
param **.source_048.app[0].requestLength 1300B
param **.source_048.app[0].replyLength 20B
param **.source_048.app[0].thinkTime 0s
param **.source_048.app[0].numRequestsPerSession 33
param **.source_049.numApps 1
param **.source_049.app[0].typename "\"TcpBasicClientApp\""
param **.source_049.app[0].localAddress "\"\""
param **.source_049.app[0].connectAddress "\"sink_049\""
param **.source_049.app[0].connectPort 1100
param **.source_049.app[0].startTime 0s
param **.source_049.app[0].idleInterval 1000s
param **.source_049.app[0].requestLength 1300B
param **.source_049.app[0].replyLength 20B
param **.source_049.app[0].thinkTime 0s
param **.source_049.app[0].numRequestsPerSession 10
param **.source_050.numApps 1
param **.source_050.app[0].typename "\"TcpBasicClientApp\""
param **.source_050.app[0].localAddress "\"\""
param **.source_050.app[0].connectAddress "\"sink_050\""
param **.source_050.app[0].connectPort 1100
param **.source_050.app[0].startTime 0s
param **.source_050.app[0].idleInterval 1000s
param **.source_050.app[0].requestLength 1300B
param **.source_050.app[0].replyLength 20B
param **.source_050.app[0].thinkTime 0s
param **.source_050.app[0].numRequestsPerSession 13
param **.source_051.numApps 1
param **.source_051.app[0].typename "\"TcpBasicClientApp\""
param **.source_051.app[0].localAddress "\"\""
param **.source_051.app[0].connectAddress "\"sink_051\""
param **.source_051.app[0].connectPort 1100
param **.source_051.app[0].startTime 0s
param **.source_051.app[0].idleInterval 1000s
param **.source_051.app[0].requestLength 1300B
param **.source_051.app[0].replyLength 20B
param **.source_051.app[0].thinkTime 0s
param **.source_051.app[0].numRequestsPerSession 7
param **.source_052.numApps 1
param **.source_052.app[0].typename "\"TcpBasicClientApp\""
param **.source_052.app[0].localAddress "\"\""
param **.source_052.app[0].connectAddress "\"sink_052\""
param **.source_052.app[0].connectPort 1100
param **.source_052.app[0].startTime 0s
param **.source_052.app[0].idleInterval 1000s
param **.source_052.app[0].requestLength 1300B
param **.source_052.app[0].replyLength 20B
param **.source_052.app[0].thinkTime 0s
param **.source_052.app[0].numRequestsPerSession 1
param **.source_053.numApps 1
param **.source_053.app[0].typename "\"TcpBasicClientApp\""
param **.source_053.app[0].localAddress "\"\""
param **.source_053.app[0].connectAddress "\"sink_053\""
param **.source_053.app[0].connectPort 1100
param **.source_053.app[0].startTime 0s
param **.source_053.app[0].idleInterval 1000s
param **.source_053.app[0].requestLength 1300B
param **.source_053.app[0].replyLength 20B
param **.source_053.app[0].thinkTime 0s
param **.source_053.app[0].numRequestsPerSession 5
param **.source_054.numApps 1
param **.source_054.app[0].typename "\"TcpBasicClientApp\""
param **.source_054.app[0].localAddress "\"\""
param **.source_054.app[0].connectAddress "\"sink_054\""
param **.source_054.app[0].connectPort 1100
param **.source_054.app[0].startTime 0s
param **.source_054.app[0].idleInterval 1000s
param **.source_054.app[0].requestLength 1300B
param **.source_054.app[0].replyLength 20B
param **.source_054.app[0].thinkTime 0s
param **.source_054.app[0].numRequestsPerSession 457
param **.source_055.numApps 1
param **.source_055.app[0].typename "\"TcpBasicClientApp\""
param **.source_055.app[0].localAddress "\"\""
param **.source_055.app[0].connectAddress "\"sink_055\""
param **.source_055.app[0].connectPort 1100
param **.source_055.app[0].startTime 0s
param **.source_055.app[0].idleInterval 1000s
param **.source_055.app[0].requestLength 1300B
param **.source_055.app[0].replyLength 20B
param **.source_055.app[0].thinkTime 0s
param **.source_055.app[0].numRequestsPerSession 2
param **.source_056.numApps 1
param **.source_056.app[0].typename "\"TcpBasicClientApp\""
param **.source_056.app[0].localAddress "\"\""
param **.source_056.app[0].connectAddress "\"sink_056\""
param **.source_056.app[0].connectPort 1100
param **.source_056.app[0].startTime 0s
param **.source_056.app[0].idleInterval 1000s
param **.source_056.app[0].requestLength 1300B
param **.source_056.app[0].replyLength 20B
param **.source_056.app[0].thinkTime 0s
param **.source_056.app[0].numRequestsPerSession 6
param **.source_057.numApps 1
param **.source_057.app[0].typename "\"TcpBasicClientApp\""
param **.source_057.app[0].localAddress "\"\""
param **.source_057.app[0].connectAddress "\"sink_057\""
param **.source_057.app[0].connectPort 1100
param **.source_057.app[0].startTime 0s
param **.source_057.app[0].idleInterval 1000s
param **.source_057.app[0].requestLength 1300B
param **.source_057.app[0].replyLength 20B
param **.source_057.app[0].thinkTime 0s
param **.source_057.app[0].numRequestsPerSession 100
param **.source_058.numApps 1
param **.source_058.app[0].typename "\"TcpBasicClientApp\""
param **.source_058.app[0].localAddress "\"\""
param **.source_058.app[0].connectAddress "\"sink_058\""
param **.source_058.app[0].connectPort 1100
param **.source_058.app[0].startTime 0s
param **.source_058.app[0].idleInterval 1000s
param **.source_058.app[0].requestLength 1300B
param **.source_058.app[0].replyLength 20B
param **.source_058.app[0].thinkTime 0s
param **.source_058.app[0].numRequestsPerSession 3
param **.source_059.numApps 1
param **.source_059.app[0].typename "\"TcpBasicClientApp\""
param **.source_059.app[0].localAddress "\"\""
param **.source_059.app[0].connectAddress "\"sink_059\""
param **.source_059.app[0].connectPort 1100
param **.source_059.app[0].startTime 0s
param **.source_059.app[0].idleInterval 1000s
param **.source_059.app[0].requestLength 1300B
param **.source_059.app[0].replyLength 20B
param **.source_059.app[0].thinkTime 0s
param **.source_059.app[0].numRequestsPerSession 528
param **.source_060.numApps 1
param **.source_060.app[0].typename "\"TcpBasicClientApp\""
param **.source_060.app[0].localAddress "\"\""
param **.source_060.app[0].connectAddress "\"sink_060\""
param **.source_060.app[0].connectPort 1100
param **.source_060.app[0].startTime 0s
param **.source_060.app[0].idleInterval 1000s
param **.source_060.app[0].requestLength 1300B
param **.source_060.app[0].replyLength 20B
param **.source_060.app[0].thinkTime 0s
param **.source_060.app[0].numRequestsPerSession 6
param **.source_061.numApps 1
param **.source_061.app[0].typename "\"TcpBasicClientApp\""
param **.source_061.app[0].localAddress "\"\""
param **.source_061.app[0].connectAddress "\"sink_061\""
param **.source_061.app[0].connectPort 1100
param **.source_061.app[0].startTime 0s
param **.source_061.app[0].idleInterval 1000s
param **.source_061.app[0].requestLength 1300B
param **.source_061.app[0].replyLength 20B
param **.source_061.app[0].thinkTime 0s
param **.source_061.app[0].numRequestsPerSession 4
param **.source_062.numApps 1
param **.source_062.app[0].typename "\"TcpBasicClientApp\""
param **.source_062.app[0].localAddress "\"\""
param **.source_062.app[0].connectAddress "\"sink_062\""
param **.source_062.app[0].connectPort 1100
param **.source_062.app[0].startTime 0s
param **.source_062.app[0].idleInterval 1000s
param **.source_062.app[0].requestLength 1300B
param **.source_062.app[0].replyLength 20B
param **.source_062.app[0].thinkTime 0s
param **.source_062.app[0].numRequestsPerSession 7
param **.source_063.numApps 1
param **.source_063.app[0].typename "\"TcpBasicClientApp\""
param **.source_063.app[0].localAddress "\"\""
param **.source_063.app[0].connectAddress "\"sink_063\""
param **.source_063.app[0].connectPort 1100
param **.source_063.app[0].startTime 0s
param **.source_063.app[0].idleInterval 1000s
param **.source_063.app[0].requestLength 1300B
param **.source_063.app[0].replyLength 20B
param **.source_063.app[0].thinkTime 0s
param **.source_063.app[0].numRequestsPerSession 8
param **.source_064.numApps 1
param **.source_064.app[0].typename "\"TcpBasicClientApp\""
param **.source_064.app[0].localAddress "\"\""
param **.source_064.app[0].connectAddress "\"sink_064\""
param **.source_064.app[0].connectPort 1100
param **.source_064.app[0].startTime 0s
param **.source_064.app[0].idleInterval 1000s
param **.source_064.app[0].requestLength 1300B
param **.source_064.app[0].replyLength 20B
param **.source_064.app[0].thinkTime 0s
param **.source_064.app[0].numRequestsPerSession 108
param **.source_065.numApps 1
param **.source_065.app[0].typename "\"TcpBasicClientApp\""
param **.source_065.app[0].localAddress "\"\""
param **.source_065.app[0].connectAddress "\"sink_065\""
param **.source_065.app[0].connectPort 1100
param **.source_065.app[0].startTime 0s
param **.source_065.app[0].idleInterval 1000s
param **.source_065.app[0].requestLength 1300B
param **.source_065.app[0].replyLength 20B
param **.source_065.app[0].thinkTime 0s
param **.source_065.app[0].numRequestsPerSession 5
param **.source_066.numApps 1
param **.source_066.app[0].typename "\"TcpBasicClientApp\""
param **.source_066.app[0].localAddress "\"\""
param **.source_066.app[0].connectAddress "\"sink_066\""
param **.source_066.app[0].connectPort 1100
param **.source_066.app[0].startTime 0s
param **.source_066.app[0].idleInterval 1000s
param **.source_066.app[0].requestLength 1300B
param **.source_066.app[0].replyLength 20B
param **.source_066.app[0].thinkTime 0s
param **.source_066.app[0].numRequestsPerSession 18
param **.source_067.numApps 1
param **.source_067.app[0].typename "\"TcpBasicClientApp\""
param **.source_067.app[0].localAddress "\"\""
param **.source_067.app[0].connectAddress "\"sink_067\""
param **.source_067.app[0].connectPort 1100
param **.source_067.app[0].startTime 0s
param **.source_067.app[0].idleInterval 1000s
param **.source_067.app[0].requestLength 1300B
param **.source_067.app[0].replyLength 20B
param **.source_067.app[0].thinkTime 0s
param **.source_067.app[0].numRequestsPerSession 6
param **.source_068.numApps 1
param **.source_068.app[0].typename "\"TcpBasicClientApp\""
param **.source_068.app[0].localAddress "\"\""
param **.source_068.app[0].connectAddress "\"sink_068\""
param **.source_068.app[0].connectPort 1100
param **.source_068.app[0].startTime 0s
param **.source_068.app[0].idleInterval 1000s
param **.source_068.app[0].requestLength 1300B
param **.source_068.app[0].replyLength 20B
param **.source_068.app[0].thinkTime 0s
param **.source_068.app[0].numRequestsPerSession 8
param **.source_069.numApps 1
param **.source_069.app[0].typename "\"TcpBasicClientApp\""
param **.source_069.app[0].localAddress "\"\""
param **.source_069.app[0].connectAddress "\"sink_069\""
param **.source_069.app[0].connectPort 1100
param **.source_069.app[0].startTime 0s
param **.source_069.app[0].idleInterval 1000s
param **.source_069.app[0].requestLength 1300B
param **.source_069.app[0].replyLength 20B
param **.source_069.app[0].thinkTime 0s
param **.source_069.app[0].numRequestsPerSession 144
param **.source_070.numApps 1
param **.source_070.app[0].typename "\"TcpBasicClientApp\""
param **.source_070.app[0].localAddress "\"\""
param **.source_070.app[0].connectAddress "\"sink_070\""
param **.source_070.app[0].connectPort 1100
param **.source_070.app[0].startTime 0s
param **.source_070.app[0].idleInterval 1000s
param **.source_070.app[0].requestLength 1300B
param **.source_070.app[0].replyLength 20B
param **.source_070.app[0].thinkTime 0s
param **.source_070.app[0].numRequestsPerSession 2
param **.source_071.numApps 1
param **.source_071.app[0].typename "\"TcpBasicClientApp\""
param **.source_071.app[0].localAddress "\"\""
param **.source_071.app[0].connectAddress "\"sink_071\""
param **.source_071.app[0].connectPort 1100
param **.source_071.app[0].startTime 0s
param **.source_071.app[0].idleInterval 1000s
param **.source_071.app[0].requestLength 1300B
param **.source_071.app[0].replyLength 20B
param **.source_071.app[0].thinkTime 0s
param **.source_071.app[0].numRequestsPerSession 1
param **.source_072.numApps 1
param **.source_072.app[0].typename "\"TcpBasicClientApp\""
param **.source_072.app[0].localAddress "\"\""
param **.source_072.app[0].connectAddress "\"sink_072\""
param **.source_072.app[0].connectPort 1100
param **.source_072.app[0].startTime 0s
param **.source_072.app[0].idleInterval 1000s
param **.source_072.app[0].requestLength 1300B
param **.source_072.app[0].replyLength 20B
param **.source_072.app[0].thinkTime 0s
param **.source_072.app[0].numRequestsPerSession 49
param **.source_073.numApps 1
param **.source_073.app[0].typename "\"TcpBasicClientApp\""
param **.source_073.app[0].localAddress "\"\""
param **.source_073.app[0].connectAddress "\"sink_073\""
param **.source_073.app[0].connectPort 1100
param **.source_073.app[0].startTime 0s
param **.source_073.app[0].idleInterval 1000s
param **.source_073.app[0].requestLength 1300B
param **.source_073.app[0].replyLength 20B
param **.source_073.app[0].thinkTime 0s
param **.source_073.app[0].numRequestsPerSession 10
param **.source_074.numApps 1
param **.source_074.app[0].typename "\"TcpBasicClientApp\""
param **.source_074.app[0].localAddress "\"\""
param **.source_074.app[0].connectAddress "\"sink_074\""
param **.source_074.app[0].connectPort 1100
param **.source_074.app[0].startTime 0s
param **.source_074.app[0].idleInterval 1000s
param **.source_074.app[0].requestLength 1300B
param **.source_074.app[0].replyLength 20B
param **.source_074.app[0].thinkTime 0s
param **.source_074.app[0].numRequestsPerSession 40
param **.source_075.numApps 1
param **.source_075.app[0].typename "\"TcpBasicClientApp\""
param **.source_075.app[0].localAddress "\"\""
param **.source_075.app[0].connectAddress "\"sink_075\""
param **.source_075.app[0].connectPort 1100
param **.source_075.app[0].startTime 0s
param **.source_075.app[0].idleInterval 1000s
param **.source_075.app[0].requestLength 1300B
param **.source_075.app[0].replyLength 20B
param **.source_075.app[0].thinkTime 0s
param **.source_075.app[0].numRequestsPerSession 19
param **.source_076.numApps 1
param **.source_076.app[0].typename "\"TcpBasicClientApp\""
param **.source_076.app[0].localAddress "\"\""
param **.source_076.app[0].connectAddress "\"sink_076\""
param **.source_076.app[0].connectPort 1100
param **.source_076.app[0].startTime 0s
param **.source_076.app[0].idleInterval 1000s
param **.source_076.app[0].requestLength 1300B
param **.source_076.app[0].replyLength 20B
param **.source_076.app[0].thinkTime 0s
param **.source_076.app[0].numRequestsPerSession 5
param **.source_077.numApps 1
param **.source_077.app[0].typename "\"TcpBasicClientApp\""
param **.source_077.app[0].localAddress "\"\""
param **.source_077.app[0].connectAddress "\"sink_077\""
param **.source_077.app[0].connectPort 1100
param **.source_077.app[0].startTime 0s
param **.source_077.app[0].idleInterval 1000s
param **.source_077.app[0].requestLength 1300B
param **.source_077.app[0].replyLength 20B
param **.source_077.app[0].thinkTime 0s
param **.source_077.app[0].numRequestsPerSession 101
param **.source_078.numApps 1
param **.source_078.app[0].typename "\"TcpBasicClientApp\""
param **.source_078.app[0].localAddress "\"\""
param **.source_078.app[0].connectAddress "\"sink_078\""
param **.source_078.app[0].connectPort 1100
param **.source_078.app[0].startTime 0s
param **.source_078.app[0].idleInterval 1000s
param **.source_078.app[0].requestLength 1300B
param **.source_078.app[0].replyLength 20B
param **.source_078.app[0].thinkTime 0s
param **.source_078.app[0].numRequestsPerSession 181
param **.source_079.numApps 1
param **.source_079.app[0].typename "\"TcpBasicClientApp\""
param **.source_079.app[0].localAddress "\"\""
param **.source_079.app[0].connectAddress "\"sink_079\""
param **.source_079.app[0].connectPort 1100
param **.source_079.app[0].startTime 0s
param **.source_079.app[0].idleInterval 1000s
param **.source_079.app[0].requestLength 1300B
param **.source_079.app[0].replyLength 20B
param **.source_079.app[0].thinkTime 0s
param **.source_079.app[0].numRequestsPerSession 21
param **.source_080.numApps 1
param **.source_080.app[0].typename "\"TcpBasicClientApp\""
param **.source_080.app[0].localAddress "\"\""
param **.source_080.app[0].connectAddress "\"sink_080\""
param **.source_080.app[0].connectPort 1100
param **.source_080.app[0].startTime 0s
param **.source_080.app[0].idleInterval 1000s
param **.source_080.app[0].requestLength 1300B
param **.source_080.app[0].replyLength 20B
param **.source_080.app[0].thinkTime 0s
param **.source_080.app[0].numRequestsPerSession 166
param **.source_081.numApps 1
param **.source_081.app[0].typename "\"TcpBasicClientApp\""
param **.source_081.app[0].localAddress "\"\""
param **.source_081.app[0].connectAddress "\"sink_081\""
param **.source_081.app[0].connectPort 1100
param **.source_081.app[0].startTime 0s
param **.source_081.app[0].idleInterval 1000s
param **.source_081.app[0].requestLength 1300B
param **.source_081.app[0].replyLength 20B
param **.source_081.app[0].thinkTime 0s
param **.source_081.app[0].numRequestsPerSession 67
param **.source_082.numApps 1
param **.source_082.app[0].typename "\"TcpBasicClientApp\""
param **.source_082.app[0].localAddress "\"\""
param **.source_082.app[0].connectAddress "\"sink_082\""
param **.source_082.app[0].connectPort 1100
param **.source_082.app[0].startTime 0s
param **.source_082.app[0].idleInterval 1000s
param **.source_082.app[0].requestLength 1300B
param **.source_082.app[0].replyLength 20B
param **.source_082.app[0].thinkTime 0s
param **.source_082.app[0].numRequestsPerSession 308
param **.source_083.numApps 1
param **.source_083.app[0].typename "\"TcpBasicClientApp\""
param **.source_083.app[0].localAddress "\"\""
param **.source_083.app[0].connectAddress "\"sink_083\""
param **.source_083.app[0].connectPort 1100
param **.source_083.app[0].startTime 0s
param **.source_083.app[0].idleInterval 1000s
param **.source_083.app[0].requestLength 1300B
param **.source_083.app[0].replyLength 20B
param **.source_083.app[0].thinkTime 0s
param **.source_083.app[0].numRequestsPerSession 25
param **.source_084.numApps 1
param **.source_084.app[0].typename "\"TcpBasicClientApp\""
param **.source_084.app[0].localAddress "\"\""
param **.source_084.app[0].connectAddress "\"sink_084\""
param **.source_084.app[0].connectPort 1100
param **.source_084.app[0].startTime 0s
param **.source_084.app[0].idleInterval 1000s
param **.source_084.app[0].requestLength 1300B
param **.source_084.app[0].replyLength 20B
param **.source_084.app[0].thinkTime 0s
param **.source_084.app[0].numRequestsPerSession 17
param **.source_085.numApps 1
param **.source_085.app[0].typename "\"TcpBasicClientApp\""
[...]
510	891269	2.086113	0.007282
510	892660	2.09411	0.007282
510	893956	2.102107	0.007282
510	895417	2.110104	0.007282
510	896652	2.118101	0.007282
510	897896	2.126098	0.007282
510	899088	2.134095	0.007282
510	900287	2.142092	0.007282
510	901566	2.150089	0.007282
510	902812	2.158086	0.007282
510	904098	2.166083	0.007282
510	905289	2.17408	0.007282
510	906465	2.182077	0.007282
510	907705	2.190074	0.007282
510	908979	2.198071	0.007282
510	910229	2.206068	0.007282
510	911431	2.214065	0.007282
510	912622	2.222062	0.007282
510	913837	2.230059	0.007282
510	915098	2.238056	0.007282
510	916373	2.246053	0.007282
510	917558	2.25405	0.007282
510	918754	2.262047	0.007282
510	919948	2.270044	0.007282
510	921216	2.278041	0.007282
510	922462	2.286038	0.007282
510	923699	2.294035	0.007282
510	924892	2.302032	0.007282
510	926089	2.310029	0.007282
510	927347	2.318026	0.007282
510	928591	2.326023	0.007282
510	929854	2.33402	0.007282
510	931056	2.342017	0.007282
510	932258	2.350014	0.007282
510	933603	2.358011	0.007282
510	934731	2.366008	0.007282
510	935813	2.374005	0.007282
510	936897	2.382002	0.007282
510	937967	2.389999	0.007282
510	939064	2.397996	0.007282
510	940210	2.405993	0.007282
510	941287	2.41399	0.007282
510	942364	2.421987	0.007282
510	943440	2.429984	0.007282
510	944488	2.437981	0.007282
510	945642	2.445978	0.007282
510	946719	2.453975	0.007282
510	947776	2.461972	0.007282
510	948822	2.469969	0.007282
510	949870	2.477966	0.007282
510	951023	2.485963	0.007282
510	952105	2.49396	0.007282
510	953176	2.501957	0.007282
510	954232	2.509954	0.007282
510	955331	2.517951	0.007282
510	956456	2.525948	0.007282
510	957577	2.533945	0.007282
510	958670	2.541942	0.007282
510	959740	2.549939	0.007282
510	960817	2.557936	0.007282
510	961914	2.565933	0.007282
510	963039	2.57393	0.007282
510	964118	2.581927	0.007282
510	965195	2.589924	0.007282
510	966249	2.597921	0.007282
510	967317	2.605918	0.007282
510	968479	2.613915	0.007282
510	969561	2.621912	0.007282
510	970624	2.629909	0.007282
510	971674	2.637906	0.007282
510	972840	2.645903	0.007282
510	973888	2.6539	0.007282
510	974871	2.661897	0.007282
510	975914	2.669894	0.007282
510	976753	2.677891	0.007282
510	977589	2.685888	0.007282
510	978474	2.693885	0.007282
510	979363	2.701882	0.007282
510	980184	2.709879	0.007282
510	981030	2.717876	0.007282
510	981877	2.725873	0.007282
510	982755	2.73387	0.007282
510	983668	2.741867	0.007282
510	984515	2.749864	0.007282
510	985358	2.757861	0.007282
510	986205	2.765858	0.007282
510	987049	2.773855	0.007282
510	987978	2.781852	0.007282
510	988828	2.789849	0.007282
510	989671	2.797846	0.007282
510	990510	2.805843	0.007282
510	991352	2.81384	0.007282
510	992277	2.821837	0.007282
510	993109	2.829834	0.007282
510	993948	2.837831	0.007282
510	994784	2.845828	0.007282
510	995618	2.853825	0.007282
510	996559	2.861822	0.007282
510	997370	2.869819	0.007282
510	998092	2.877816	0.007282
510	998814	2.885813	0.007282
510	999536	2.89381	0.007282
510	1000289	2.901807	0.007282
510	1001077	2.909804	0.007282
510	1001795	2.917801	0.007282
510	1002517	2.925798	0.007282
510	1003239	2.933795	0.007282
510	1003954	2.941792	0.007282
510	1004765	2.949789	0.007282
510	1005498	2.957786	0.007282
510	1006220	2.965783	0.007282
510	1006938	2.97378	0.007282
510	1007660	2.981777	0.007282
510	1008460	2.989774	0.007282
510	1009197	2.997771	0.007282
510	1009916	3.005768	0.007282
510	1010637	3.013765	0.007282
510	1011352	3.021762	0.007282
510	1012118	3.029759	0.007282
510	1012884	3.037756	0.007282
510	1013602	3.045753	0.007282
510	1014298	3.05375	0.007282
510	1015009	3.061747	0.007282
510	1015754	3.069744	0.007282
510	1016530	3.077741	0.007282
510	1017244	3.085738	0.007282
510	1017960	3.093735	0.007282
510	1018660	3.101732	0.007282
510	1019400	3.109729	0.007282
510	1020190	3.117726	0.007282
510	1020923	3.125723	0.007282
510	1021645	3.13372	0.007282
510	1022363	3.141717	0.007282
510	1023081	3.149714	0.007282
510	1023884	3.157711	0.007282
510	1024611	3.165708	0.007282
510	1025211	3.173705	0.007282
510	1025805	3.181702	0.007282
510	1026402	3.189699	0.007282
510	1026998	3.197696	0.007282
510	1027595	3.205693	0.007282
510	1028170	3.21369	0.007282
510	1028760	3.221687	0.007282
510	1029353	3.229684	0.007282
510	1029943	3.237681	0.007282
510	1030535	3.245678	0.007282
510	1031130	3.253675	0.007282
510	1031709	3.261672	0.007282
510	1032310	3.269669	0.007282
510	1032911	3.277666	0.007282
510	1033512	3.285663	0.007282
510	1034113	3.29366	0.007282
510	1034714	3.301657	0.007282
510	1035311	3.309654	0.007282
510	1035912	3.317651	0.007282
510	1036510	3.325648	0.007282
510	1037110	3.333645	0.007282
510	1037711	3.341642	0.007282
510	1038312	3.349639	0.007282
510	1038913	3.357636	0.007282
510	1039514	3.365633	0.007282
510	1040112	3.37363	0.007282
510	1040712	3.381627	0.007282
510	1041313	3.389624	0.007282
510	1041911	3.397621	0.007282
510	1042511	3.405618	0.007282
510	1043105	3.413615	0.007282
510	1043701	3.421612	0.007282
510	1044298	3.429609	0.007282
510	1044892	3.437606	0.007282
510	1045470	3.445603	0.007282
510	1046060	3.4536	0.007282
510	1046653	3.461597	0.007282
510	1047242	3.469594	0.007282
510	1047834	3.477591	0.007282
510	1048430	3.485588	0.007282
510	1049009	3.493585	0.007282
510	1049610	3.501582	0.007282
510	1050211	3.509579	0.007282
510	1050812	3.517576	0.007282
510	1051413	3.525573	0.007282
510	1052011	3.53357	0.007282
510	1052611	3.541567	0.007282
510	1053212	3.549564	0.007282
510	1053810	3.557561	0.007282
510	1054410	3.565558	0.007282
510	1055004	3.573555	0.007282
510	1055600	3.581552	0.007282
510	1056197	3.589549	0.007282
510	1056791	3.597546	0.007282
510	1057369	3.605543	0.007282
510	1057959	3.61354	0.007282
510	1058552	3.621537	0.007282
510	1059142	3.629534	0.007282
510	1059733	3.637531	0.007282
510	1060329	3.645528	0.007282
510	1060908	3.653525	0.007282
510	1061509	3.661522	0.007282
510	1062110	3.669519	0.007282
510	1062711	3.677516	0.007282
510	1063312	3.685513	0.007282
510	1063913	3.69351	0.007282
510	1064510	3.701507	0.007282
510	1065111	3.709504	0.007282
510	1065709	3.717501	0.007282
510	1066309	3.725498	0.007282
510	1066910	3.733495	0.007282
510	1067511	3.741492	0.007282
510	1068112	3.749489	0.007282
510	1068713	3.757486	0.007282
510	1069311	3.765483	0.007282
510	1069911	3.77348	0.007282
510	1070512	3.781477	0.007282
510	1071110	3.789474	0.007282
510	1071710	3.797471	0.007282
510	1072303	3.805468	0.007282
510	1072900	3.813465	0.007282
510	1073494	3.821462	0.007282
510	1074091	3.829459	0.007282
510	1074669	3.837456	0.007282
510	1075259	3.845453	0.007282
510	1075852	3.85345	0.007282
511	49562	0.043734	0.002043
511	84784	0.077304	0.001892
511	111802	0.103203	0.000882
511	139215	0.131353	0.000882
511	161636	0.155333	0.000882
512	49681	0.043801	0.000763
512	86611	0.078915	0.000715
512	115816	0.107258	0.000755
512	143069	0.135462	0.000715
512	165638	0.159489	0.000715
512	183693	0.179428	0.000715
512	201148	0.198991	0.000715
512	217323	0.217784	0.000715
512	232570	0.236	0.000715
512	243931	0.250222	0.000715
512	253921	0.262862	0.000715
512	261648	0.272761	0.000715
512	269980	0.28396	0.000715
512	277591	0.293765	0.000715
512	284874	0.30357	0.000715
512	292364	0.313857	0.000715
512	298572	0.32216	0.000715
512	304941	0.331225	0.000715
512	311503	0.340243	0.000715
512	317860	0.349308	0.000715
512	323637	0.358273	0.000715
512	329287	0.366437	0.000715
512	334810	0.374601	0.000715
512	340198	0.382765	0.000715
512	345933	0.390888	0.000715
512	351154	0.399093	0.000715
512	356316	0.40733	0.000715
512	361436	0.415421	0.000715
512	366536	0.423585	0.000715
512	372579	0.433057	0.000717
512	378455	0.442348	0.000715
512	383321	0.450559	0.000715
512	387722	0.458556	0.000715
512	392185	0.466553	0.000715
512	396640	0.47455	0.000715
512	401320	0.482547	0.000715
512	405736	0.490544	0.000715
512	409903	0.498541	0.000715
512	414133	0.506538	0.000715
512	418411	0.514535	0.000715
512	422477	0.522532	0.000715
512	426437	0.530529	0.000715
512	430696	0.538526	0.000715
512	434847	0.546523	0.000715
512	439356	0.555252	0.000715
512	443646	0.563416	0.000715
512	447712	0.57158	0.000715
512	451825	0.579744	0.000715
512	456025	0.587908	0.000715
512	459877	0.596072	0.000715
512	463569	0.604236	0.000715
512	467596	0.6124	0.000715
512	471522	0.620564	0.000715
512	475280	0.628728	0.000715
512	479021	0.636892	0.000715
512	482890	0.645056	0.000715
512	486662	0.65322	0.000715
512	490407	0.661384	0.000715
512	493875	0.669548	0.000715
512	497494	0.677545	0.000715
512	500921	0.685542	0.000715
512	504369	0.693539	0.000715
512	507609	0.701536	0.000715
512	510949	0.709533	0.000715
512	514373	0.71753	0.000715
512	517691	0.725527	0.000715
512	521085	0.733524	0.000715
512	524504	0.741521	0.000715
512	528069	0.749518	0.000715
512	531322	0.757515	0.000715
512	534786	0.765512	0.000715
512	538026	0.773509	0.000715
512	541466	0.781506	0.000715
512	544776	0.789508	0.000715
512	548066	0.797505	0.000715
512	551494	0.805502	0.000715
512	554768	0.813499	0.000715
512	558095	0.821496	0.000715
512	561350	0.829493	0.000715
512	564603	0.83749	0.000715
512	567813	0.845487	0.000715
512	571414	0.853988	0.000715
512	574908	0.862152	0.000715
512	578414	0.871237	0.000715
512	581908	0.879281	0.000715
512	585157	0.887278	0.000715
512	588467	0.895275	0.000715
512	591413	0.903272	0.000715
512	594312	0.911269	0.000715
512	597131	0.919266	0.000715
512	599889	0.927263	0.000715
512	602787	0.93526	0.000715
512	605618	0.943257	0.000715
512	608446	0.951254	0.000715
512	611244	0.959251	0.000715
512	614117	0.967248	0.000715
512	616868	0.975245	0.000715
512	619659	0.983242	0.000715
512	622425	0.991239	0.000715
512	625440	0.999236	0.000715
512	628194	1.007233	0.000715
512	631107	1.01523	0.000715
512	633755	1.023227	0.000715
512	636601	1.031224	0.000715
512	639471	1.039221	0.000715
512	642270	1.047218	0.000715
512	644745	1.055215	0.000715
512	647088	1.063212	0.000715
512	649484	1.071209	0.000715
512	651809	1.079206	0.000715
512	654248	1.087203	0.000715
512	656663	1.0952	0.000715
512	659094	1.103197	0.000715
512	661569	1.111194	0.000715
512	663883	1.119191	0.000715
512	666138	1.127188	0.000715
512	668490	1.135185	0.000715
512	670940	1.143182	0.000715
512	673406	1.151179	0.000715
512	675546	1.159176	0.000715
512	677801	1.167173	0.000715
512	680006	1.17517	0.000715
512	682258	1.183167	0.000715
512	684458	1.191164	0.000715
512	686672	1.199161	0.000715
512	688943	1.207158	0.000715
512	691146	1.215155	0.000715
512	693348	1.223152	0.000715
512	695577	1.231149	0.000715
512	697944	1.239146	0.000715
512	700117	1.247143	0.000715
512	702148	1.25514	0.000715
512	704112	1.263137	0.000715
512	706197	1.271134	0.000715
512	708405	1.279131	0.000715
512	710432	1.287128	0.000715
512	712525	1.295125	0.000715
512	714573	1.303122	0.000715
512	716661	1.311119	0.000715
512	718668	1.319116	0.000715
512	720860	1.327113	0.000715
512	722955	1.33511	0.000715
512	725139	1.343107	0.000715
512	727038	1.351104	0.000715
512	729083	1.359101	0.000715
512	731155	1.367098	0.000715
512	733327	1.375095	0.000715
512	735258	1.383092	0.000715
512	737350	1.391089	0.000715
512	739339	1.399086	0.000715
512	741346	1.407083	0.000715
512	743287	1.41508	0.000715
512	745357	1.423077	0.000715
512	747337	1.431074	0.000715
512	749359	1.439071	0.000715
512	751184	1.447068	0.000715
512	753250	1.455065	0.000715
512	755169	1.463062	0.000715
512	757150	1.471059	0.000715
512	758992	1.479056	0.000715
512	760958	1.487053	0.000715
512	762823	1.49505	0.000715
512	764901	1.503047	0.000715
512	766776	1.511044	0.000715
512	768827	1.519041	0.000715
512	770803	1.527038	0.000715
512	772777	1.535035	0.000715
512	774631	1.543032	0.000715
512	776703	1.551029	0.000715
512	778707	1.559026	0.000715
512	780746	1.567023	0.000715
512	782552	1.57502	0.000715
512	784496	1.583017	0.000715
512	786350	1.591014	0.000715
512	788348	1.599011	0.000715
512	790164	1.607008	0.000715
512	792162	1.615005	0.000715
512	794125	1.623002	0.000715
512	796123	1.630999	0.000715
512	798010	1.638996	0.000715
512	800057	1.646993	0.000715
512	802151	1.65499	0.000715
512	804136	1.662987	0.000715
512	805885	1.670984	0.000715
512	807733	1.678981	0.000715
512	809454	1.686978	0.000715
512	811499	1.694975	0.000715
512	813166	1.702972	0.000715
512	814830	1.710969	0.000715
512	816411	1.718966	0.000715
512	818160	1.726963	0.000715
512	819866	1.73496	0.000715
512	821592	1.742957	0.000715
512	823281	1.750954	0.000715
512	825131	1.758951	0.000715
512	826774	1.766948	0.000715
512	828502	1.774945	0.000715
512	830086	1.782942	0.000715
512	831909	1.790939	0.000715
512	833618	1.798936	0.000715
512	835429	1.806933	0.000715
512	837061	1.81493	0.000715
512	838623	1.822927	0.000715
512	840295	1.830924	0.000715
512	842103	1.838921	0.000715
512	843751	1.846918	0.000715
512	845345	1.854915	0.000715
512	847135	1.862912	0.000715
512	848766	1.870909	0.000715
512	850355	1.878906	0.000715
512	852016	1.886903	0.000715
512	853647	1.8949	0.000715
512	855300	1.902897	0.000715
512	856849	1.910894	0.000715
512	858463	1.918891	0.000715
512	860083	1.926888	0.000715
512	861772	1.934885	0.000715
512	863373	1.942882	0.000715
512	864988	1.950879	0.000715
512	866405	1.958876	0.000715
512	868047	1.966873	0.000715
512	869637	1.97487	0.000715
512	871262	1.982867	0.000715
512	872752	1.990864	0.000715
512	874390	1.998861	0.000715
512	875940	2.006858	0.000715
512	877609	2.014855	0.000715
512	879194	2.022852	0.000715
512	880915	2.030849	0.000715
512	882489	2.038846	0.000715
512	884189	2.046843	0.000715
512	885656	2.05484	0.000715
512	887344	2.062837	0.000715
512	888713	2.070834	0.000715
512	890141	2.078831	0.000715
512	891437	2.086828	0.000715
512	892820	2.094825	0.000715
512	894158	2.102822	0.000715
512	895623	2.110819	0.000715
512	896857	2.118816	0.000715
512	898062	2.126813	0.000715
512	899279	2.13481	0.000715
512	900497	2.142807	0.000715
512	901742	2.150804	0.000715
512	903028	2.158801	0.000715
512	904244	2.166798	0.000715
512	905417	2.174795	0.000715
512	906626	2.182792	0.000715
512	907885	2.190789	0.000715
512	909147	2.198786	0.000715
512	910376	2.206783	0.000715
512	911544	2.21478	0.000715
512	912736	2.222777	0.000715
512	914016	2.230774	0.000715
512	915261	2.238771	0.000715
512	916494	2.246768	0.000715
512	917688	2.254765	0.000715
512	918878	2.262762	0.000715
512	920121	2.270759	0.000715
512	921376	2.278756	0.000715
512	922615	2.286753	0.000715
512	923818	2.29475	0.000715
512	925016	2.302747	0.000715
512	926224	2.310744	0.000715
512	927478	2.318741	0.000715
512	928755	2.326738	0.000715
512	929957	2.334735	0.000715
512	931154	2.342732	0.000715
512	932348	2.350729	0.000715
512	933709	2.358726	0.000715
512	934798	2.366723	0.000715
512	935878	2.37472	0.000715
512	936955	2.382717	0.000715
512	938036	2.390714	0.000715
512	939196	2.398711	0.000715
512	940292	2.406708	0.000715
512	941376	2.414705	0.000715
512	942448	2.422702	0.000715
512	943526	2.430699	0.000715
512	944640	2.438696	0.000715
512	945766	2.446693	0.000715
512	946843	2.45469	0.000715
512	947920	2.462687	0.000715
512	948971	2.470684	0.000715
512	950069	2.478681	0.000715
512	951229	2.486678	0.000715
512	952295	2.494675	0.000715
512	953371	2.502672	0.000715
512	954422	2.510669	0.000715
512	955516	2.518666	0.000715
512	956664	2.526663	0.000715
512	957744	2.53466	0.000715
512	958804	2.542657	0.000715
512	959876	2.550654	0.000715
512	960947	2.558651	0.000715
512	962085	2.566648	0.000715
512	963172	2.574645	0.000715
512	964243	2.582642	0.000715
512	965315	2.590639	0.000715
512	966378	2.598636	0.000715
512	967480	2.606633	0.000715
512	968600	2.61463	0.000715
512	969677	2.622627	0.000715
512	970729	2.630624	0.000715
512	971798	2.638621	0.000715
512	973000	2.646618	0.000715
512	974025	2.654615	0.000715
512	974982	2.662612	0.000715
512	976023	2.670609	0.000715
512	976863	2.678606	0.000715
512	977724	2.686603	0.000715
512	978637	2.6946	0.000715
512	979468	2.702597	0.000715
512	980303	2.710594	0.000715
512	981136	2.718591	0.000715
512	981970	2.726588	0.000715
512	982891	2.734585	0.000715
512	983732	2.742582	0.000715
512	984573	2.750579	0.000715
512	985420	2.758576	0.000715
512	986267	2.766573	0.000715
512	987162	2.77457	0.000715
512	988058	2.782567	0.000715
512	988902	2.790564	0.000715
512	989748	2.798561	0.000715
512	990595	2.806558	0.000715
512	991470	2.814555	0.000715
512	992371	2.822552	0.000715
512	993214	2.830549	0.000715
512	994057	2.838546	0.000715
512	994900	2.846543	0.000715
512	995762	2.85454	0.000715
512	996752	2.862537	0.000715
512	997486	2.870534	0.000715
512	998197	2.878531	0.000715
512	998904	2.886528	0.000715
512	999617	2.894525	0.000715
512	1000399	2.902522	0.000715
512	1001136	2.910519	0.000715
512	1001857	2.918516	0.000715
512	1002579	2.926513	0.000715
512	1003301	2.93451	0.000715
512	1004071	2.942507	0.000715
512	1004839	2.950504	0.000715
512	1005560	2.958501	0.000715
512	1006282	2.966498	0.000715
512	1007000	2.974495	0.000715
512	1007757	2.982492	0.000715
512	1008541	2.990489	0.000715
512	1009263	2.998486	0.000715
512	1009985	3.006483	0.000715
512	1010707	3.01448	0.000715
512	1011444	3.022477	0.000715
512	1012236	3.030474	0.000715
512	1012963	3.038471	0.000715
512	1013684	3.046468	0.000715
512	1014396	3.054465	0.000715
512	1015113	3.062462	0.000715
512	1015916	3.070459	0.000715
512	1016647	3.078456	0.000715
512	1017363	3.086453	0.000715
512	1018062	3.09445	0.000715
512	1018772	3.102447	0.000715
512	1019531	3.110444	0.000715
512	1020290	3.118441	0.000715
512	1021004	3.126438	0.000715
512	1021704	3.134435	0.000715
512	1022425	3.142432	0.000715
512	1023182	3.150429	0.000715
512	1024004	3.158426	0.000715
512	1024676	3.166423	0.000715
512	1025277	3.17442	0.000715
512	1025874	3.182417	0.000715
512	1026475	3.190414	0.000715
512	1027076	3.198411	0.000715
512	1027673	3.206408	0.000715
512	1028267	3.214405	0.000715
512	1028864	3.222402	0.000715
512	1029461	3.230399	0.000715
512	1030058	3.238396	0.000715
512	1030654	3.246393	0.000715
512	1031232	3.25439	0.000715
512	1031821	3.262387	0.000715
512	1032408	3.270384	0.000715
512	1033000	3.278381	0.000715
512	1033593	3.286378	0.000715
512	1034172	3.294375	0.000715
512	1034772	3.302372	0.000715
512	1035373	3.310369	0.000715
512	1035974	3.318366	0.000715
512	1036575	3.326363	0.000715
512	1037176	3.33436	0.000715
512	1037774	3.342357	0.000715
512	1038374	3.350354	0.000715
512	1038975	3.358351	0.000715
512	1039572	3.366348	0.000715
512	1040173	3.374345	0.000715
512	1040774	3.382342	0.000715
512	1041375	3.390339	0.000715
512	1041976	3.398336	0.000715
512	1042577	3.406333	0.000715
512	1043174	3.41433	0.000715
512	1043775	3.422327	0.000715
512	1044373	3.430324	0.000715
512	1044973	3.438321	0.000715
512	1045567	3.446318	0.000715
512	1046164	3.454315	0.000715
512	1046761	3.462312	0.000715
512	1047357	3.470309	0.000715
512	1047954	3.478306	0.000715
512	1048532	3.486303	0.000715
512	1049118	3.4943	0.000715
512	1049708	3.502297	0.000715
512	1050300	3.510294	0.000715
512	1050893	3.518291	0.000715
512	1051472	3.526288	0.000715
512	1052072	3.534285	0.000715
512	1052673	3.542282	0.000715
512	1053274	3.550279	0.000715
512	1053875	3.558276	0.000715
512	1054476	3.566273	0.000715
512	1055073	3.57427	0.000715
512	1055674	3.582267	0.000715
512	1056275	3.590264	0.000715
512	1056872	3.598261	0.000715
512	1057466	3.606258	0.000715
512	1058063	3.614255	0.000715
512	1058660	3.622252	0.000715
512	1059256	3.630249	0.000715
512	1059853	3.638246	0.000715
512	1060431	3.646243	0.000715
512	1061017	3.65424	0.000715
512	1061607	3.662237	0.000715
512	1062199	3.670234	0.000715
512	1062792	3.678231	0.000715
512	1063371	3.686228	0.000715
512	1063971	3.694225	0.000715
512	1064572	3.702222	0.000715
512	1065173	3.710219	0.000715
512	1065774	3.718216	0.000715
512	1066375	3.726213	0.000715
512	1066973	3.73421	0.000715
512	1067573	3.742207	0.000715
512	1068174	3.750204	0.000715
512	1068771	3.758201	0.000715
512	1069372	3.766198	0.000715
512	1069973	3.774195	0.000715
512	1070574	3.782192	0.000715
512	1071175	3.790189	0.000715
512	1071776	3.798186	0.000715
512	1072373	3.806183	0.000715
512	1072974	3.81418	0.000715
512	1073572	3.822177	0.000715
512	1074172	3.830174	0.000715
512	1074766	3.838171	0.000715
512	1075363	3.846168	0.000715
512	1075959	3.854165	0.000715

