version 2
run General-0-20220427-21:34:21-22306
attr configname General
attr datetime 20220427-21:34:21
attr experiment General
attr inifile Jellyfish_8_8_7_8__jelly_vary_num_switches_seed8.ini
attr iterationvars ""
attr iterationvarsf ""
attr measurement ""
attr network Jellyfish_8_8_7_8__jelly_vary_num_switches_seed8
attr processid 22306
attr repetition 0
attr replication #0
attr resultdir results
attr runnumber 0
attr seedset 0
param **.ppp[*].ppp.queue.typename "\"DropTailQueue\""
param **.ppp[*].ppp.queue.packetCapacity 100
param *.configurator.config "xmldoc(\"Jellyfish_8_8_7_8__jelly_vary_num_switches_seed8.xml\")"
param **.sink_000.numApps 1
param **.sink_000.app[0].typename "\"TcpGenericServerApp\""
param **.sink_000.app[0].localAddress "\"\""
param **.sink_000.app[0].localPort 1100
param **.sink_000.app[0].replyDelay 0s
param **.sink_001.numApps 1
param **.sink_001.app[0].typename "\"TcpGenericServerApp\""
param **.sink_001.app[0].localAddress "\"\""
param **.sink_001.app[0].localPort 1100
param **.sink_001.app[0].replyDelay 0s
param **.sink_002.numApps 1
param **.sink_002.app[0].typename "\"TcpGenericServerApp\""
param **.sink_002.app[0].localAddress "\"\""
param **.sink_002.app[0].localPort 1100
param **.sink_002.app[0].replyDelay 0s
param **.sink_003.numApps 1
param **.sink_003.app[0].typename "\"TcpGenericServerApp\""
param **.sink_003.app[0].localAddress "\"\""
param **.sink_003.app[0].localPort 1100
param **.sink_003.app[0].replyDelay 0s
param **.sink_004.numApps 1
param **.sink_004.app[0].typename "\"TcpGenericServerApp\""
param **.sink_004.app[0].localAddress "\"\""
param **.sink_004.app[0].localPort 1100
param **.sink_004.app[0].replyDelay 0s
param **.sink_005.numApps 1
param **.sink_005.app[0].typename "\"TcpGenericServerApp\""
param **.sink_005.app[0].localAddress "\"\""
param **.sink_005.app[0].localPort 1100
param **.sink_005.app[0].replyDelay 0s
param **.sink_006.numApps 1
param **.sink_006.app[0].typename "\"TcpGenericServerApp\""
param **.sink_006.app[0].localAddress "\"\""
param **.sink_006.app[0].localPort 1100
param **.sink_006.app[0].replyDelay 0s
param **.sink_007.numApps 1
param **.sink_007.app[0].typename "\"TcpGenericServerApp\""
param **.sink_007.app[0].localAddress "\"\""
param **.sink_007.app[0].localPort 1100
param **.sink_007.app[0].replyDelay 0s
param **.sink_008.numApps 1
param **.sink_008.app[0].typename "\"TcpGenericServerApp\""
param **.sink_008.app[0].localAddress "\"\""
param **.sink_008.app[0].localPort 1100
param **.sink_008.app[0].replyDelay 0s
param **.sink_009.numApps 1
param **.sink_009.app[0].typename "\"TcpGenericServerApp\""
param **.sink_009.app[0].localAddress "\"\""
param **.sink_009.app[0].localPort 1100
param **.sink_009.app[0].replyDelay 0s
param **.sink_010.numApps 1
param **.sink_010.app[0].typename "\"TcpGenericServerApp\""
param **.sink_010.app[0].localAddress "\"\""
param **.sink_010.app[0].localPort 1100
param **.sink_010.app[0].replyDelay 0s
param **.sink_011.numApps 1
param **.sink_011.app[0].typename "\"TcpGenericServerApp\""
param **.sink_011.app[0].localAddress "\"\""
param **.sink_011.app[0].localPort 1100
param **.sink_011.app[0].replyDelay 0s
param **.sink_012.numApps 1
param **.sink_012.app[0].typename "\"TcpGenericServerApp\""
param **.sink_012.app[0].localAddress "\"\""
param **.sink_012.app[0].localPort 1100
param **.sink_012.app[0].replyDelay 0s
param **.sink_013.numApps 1
param **.sink_013.app[0].typename "\"TcpGenericServerApp\""
param **.sink_013.app[0].localAddress "\"\""
param **.sink_013.app[0].localPort 1100
param **.sink_013.app[0].replyDelay 0s
param **.sink_014.numApps 1
param **.sink_014.app[0].typename "\"TcpGenericServerApp\""
param **.sink_014.app[0].localAddress "\"\""
param **.sink_014.app[0].localPort 1100
param **.sink_014.app[0].replyDelay 0s
param **.sink_015.numApps 1
param **.sink_015.app[0].typename "\"TcpGenericServerApp\""
param **.sink_015.app[0].localAddress "\"\""
param **.sink_015.app[0].localPort 1100
param **.sink_015.app[0].replyDelay 0s
param **.sink_016.numApps 1
param **.sink_016.app[0].typename "\"TcpGenericServerApp\""
param **.sink_016.app[0].localAddress "\"\""
param **.sink_016.app[0].localPort 1100
param **.sink_016.app[0].replyDelay 0s
param **.sink_017.numApps 1
param **.sink_017.app[0].typename "\"TcpGenericServerApp\""
param **.sink_017.app[0].localAddress "\"\""
param **.sink_017.app[0].localPort 1100
param **.sink_017.app[0].replyDelay 0s
param **.sink_018.numApps 1
param **.sink_018.app[0].typename "\"TcpGenericServerApp\""
param **.sink_018.app[0].localAddress "\"\""
param **.sink_018.app[0].localPort 1100
param **.sink_018.app[0].replyDelay 0s
param **.sink_019.numApps 1
param **.sink_019.app[0].typename "\"TcpGenericServerApp\""
param **.sink_019.app[0].localAddress "\"\""
param **.sink_019.app[0].localPort 1100
param **.sink_019.app[0].replyDelay 0s
param **.sink_020.numApps 1
param **.sink_020.app[0].typename "\"TcpGenericServerApp\""
param **.sink_020.app[0].localAddress "\"\""
param **.sink_020.app[0].localPort 1100
param **.sink_020.app[0].replyDelay 0s
param **.sink_021.numApps 1
param **.sink_021.app[0].typename "\"TcpGenericServerApp\""
param **.sink_021.app[0].localAddress "\"\""
param **.sink_021.app[0].localPort 1100
param **.sink_021.app[0].replyDelay 0s
param **.sink_022.numApps 1
param **.sink_022.app[0].typename "\"TcpGenericServerApp\""
param **.sink_022.app[0].localAddress "\"\""
param **.sink_022.app[0].localPort 1100
param **.sink_022.app[0].replyDelay 0s
param **.sink_023.numApps 1
param **.sink_023.app[0].typename "\"TcpGenericServerApp\""
param **.sink_023.app[0].localAddress "\"\""
param **.sink_023.app[0].localPort 1100
param **.sink_023.app[0].replyDelay 0s
param **.sink_024.numApps 1
param **.sink_024.app[0].typename "\"TcpGenericServerApp\""
param **.sink_024.app[0].localAddress "\"\""
param **.sink_024.app[0].localPort 1100
param **.sink_024.app[0].replyDelay 0s
param **.sink_025.numApps 1
param **.sink_025.app[0].typename "\"TcpGenericServerApp\""
param **.sink_025.app[0].localAddress "\"\""
param **.sink_025.app[0].localPort 1100
param **.sink_025.app[0].replyDelay 0s
param **.sink_026.numApps 1
param **.sink_026.app[0].typename "\"TcpGenericServerApp\""
param **.sink_026.app[0].localAddress "\"\""
param **.sink_026.app[0].localPort 1100
param **.sink_026.app[0].replyDelay 0s
param **.sink_027.numApps 1
param **.sink_027.app[0].typename "\"TcpGenericServerApp\""
param **.sink_027.app[0].localAddress "\"\""
param **.sink_027.app[0].localPort 1100
param **.sink_027.app[0].replyDelay 0s
param **.sink_028.numApps 1
param **.sink_028.app[0].typename "\"TcpGenericServerApp\""
param **.sink_028.app[0].localAddress "\"\""
param **.sink_028.app[0].localPort 1100
param **.sink_028.app[0].replyDelay 0s
param **.sink_029.numApps 1
param **.sink_029.app[0].typename "\"TcpGenericServerApp\""
param **.sink_029.app[0].localAddress "\"\""
param **.sink_029.app[0].localPort 1100
param **.sink_029.app[0].replyDelay 0s
param **.sink_030.numApps 1
param **.sink_030.app[0].typename "\"TcpGenericServerApp\""
param **.sink_030.app[0].localAddress "\"\""
param **.sink_030.app[0].localPort 1100
param **.sink_030.app[0].replyDelay 0s
param **.sink_031.numApps 1
param **.sink_031.app[0].typename "\"TcpGenericServerApp\""
param **.sink_031.app[0].localAddress "\"\""
param **.sink_031.app[0].localPort 1100
param **.sink_031.app[0].replyDelay 0s
param **.sink_032.numApps 1
param **.sink_032.app[0].typename "\"TcpGenericServerApp\""
param **.sink_032.app[0].localAddress "\"\""
param **.sink_032.app[0].localPort 1100
param **.sink_032.app[0].replyDelay 0s
param **.sink_033.numApps 1
param **.sink_033.app[0].typename "\"TcpGenericServerApp\""
param **.sink_033.app[0].localAddress "\"\""
param **.sink_033.app[0].localPort 1100
param **.sink_033.app[0].replyDelay 0s
param **.sink_034.numApps 1
param **.sink_034.app[0].typename "\"TcpGenericServerApp\""
param **.sink_034.app[0].localAddress "\"\""
param **.sink_034.app[0].localPort 1100
param **.sink_034.app[0].replyDelay 0s
param **.sink_035.numApps 1
param **.sink_035.app[0].typename "\"TcpGenericServerApp\""
param **.sink_035.app[0].localAddress "\"\""
param **.sink_035.app[0].localPort 1100
param **.sink_035.app[0].replyDelay 0s
param **.sink_036.numApps 1
param **.sink_036.app[0].typename "\"TcpGenericServerApp\""
param **.sink_036.app[0].localAddress "\"\""
param **.sink_036.app[0].localPort 1100
param **.sink_036.app[0].replyDelay 0s
param **.sink_037.numApps 1
param **.sink_037.app[0].typename "\"TcpGenericServerApp\""
param **.sink_037.app[0].localAddress "\"\""
param **.sink_037.app[0].localPort 1100
param **.sink_037.app[0].replyDelay 0s
param **.sink_038.numApps 1
param **.sink_038.app[0].typename "\"TcpGenericServerApp\""
param **.sink_038.app[0].localAddress "\"\""
param **.sink_038.app[0].localPort 1100
param **.sink_038.app[0].replyDelay 0s
param **.sink_039.numApps 1
param **.sink_039.app[0].typename "\"TcpGenericServerApp\""
param **.sink_039.app[0].localAddress "\"\""
param **.sink_039.app[0].localPort 1100
param **.sink_039.app[0].replyDelay 0s
param **.source_000.numApps 1
param **.source_000.app[0].typename "\"TcpBasicClientApp\""
param **.source_000.app[0].localAddress "\"\""
param **.source_000.app[0].connectAddress "\"sink_000\""
param **.source_000.app[0].connectPort 1100
param **.source_000.app[0].startTime 0s
param **.source_000.app[0].idleInterval 1000s
param **.source_000.app[0].requestLength 1300B
param **.source_000.app[0].replyLength 20B
param **.source_000.app[0].thinkTime 0s
param **.source_000.app[0].numRequestsPerSession 10
param **.source_001.numApps 1
param **.source_001.app[0].typename "\"TcpBasicClientApp\""
param **.source_001.app[0].localAddress "\"\""
param **.source_001.app[0].connectAddress "\"sink_001\""
param **.source_001.app[0].connectPort 1100
param **.source_001.app[0].startTime 0s
param **.source_001.app[0].idleInterval 1000s
param **.source_001.app[0].requestLength 1300B
param **.source_001.app[0].replyLength 20B
param **.source_001.app[0].thinkTime 0s
param **.source_001.app[0].numRequestsPerSession 95
param **.source_002.numApps 1
param **.source_002.app[0].typename "\"TcpBasicClientApp\""
param **.source_002.app[0].localAddress "\"\""
param **.source_002.app[0].connectAddress "\"sink_002\""
param **.source_002.app[0].connectPort 1100
param **.source_002.app[0].startTime 0s
param **.source_002.app[0].idleInterval 1000s
param **.source_002.app[0].requestLength 1300B
param **.source_002.app[0].replyLength 20B
param **.source_002.app[0].thinkTime 0s
param **.source_002.app[0].numRequestsPerSession 665
param **.source_003.numApps 1
param **.source_003.app[0].typename "\"TcpBasicClientApp\""
param **.source_003.app[0].localAddress "\"\""
param **.source_003.app[0].connectAddress "\"sink_003\""
param **.source_003.app[0].connectPort 1100
param **.source_003.app[0].startTime 0s
param **.source_003.app[0].idleInterval 1000s
param **.source_003.app[0].requestLength 1300B
param **.source_003.app[0].replyLength 20B
param **.source_003.app[0].thinkTime 0s
param **.source_003.app[0].numRequestsPerSession 412
param **.source_004.numApps 1
param **.source_004.app[0].typename "\"TcpBasicClientApp\""
param **.source_004.app[0].localAddress "\"\""
param **.source_004.app[0].connectAddress "\"sink_004\""
param **.source_004.app[0].connectPort 1100
param **.source_004.app[0].startTime 0s
param **.source_004.app[0].idleInterval 1000s
param **.source_004.app[0].requestLength 1300B
param **.source_004.app[0].replyLength 20B
param **.source_004.app[0].thinkTime 0s
param **.source_004.app[0].numRequestsPerSession 359
param **.source_005.numApps 1
param **.source_005.app[0].typename "\"TcpBasicClientApp\""
param **.source_005.app[0].localAddress "\"\""
param **.source_005.app[0].connectAddress "\"sink_005\""
param **.source_005.app[0].connectPort 1100
param **.source_005.app[0].startTime 0s
param **.source_005.app[0].idleInterval 1000s
param **.source_005.app[0].requestLength 1300B
param **.source_005.app[0].replyLength 20B
param **.source_005.app[0].thinkTime 0s
param **.source_005.app[0].numRequestsPerSession 48
param **.source_006.numApps 1
param **.source_006.app[0].typename "\"TcpBasicClientApp\""
param **.source_006.app[0].localAddress "\"\""
param **.source_006.app[0].connectAddress "\"sink_006\""
param **.source_006.app[0].connectPort 1100
param **.source_006.app[0].startTime 0s
param **.source_006.app[0].idleInterval 1000s
param **.source_006.app[0].requestLength 1300B
param **.source_006.app[0].replyLength 20B
param **.source_006.app[0].thinkTime 0s
param **.source_006.app[0].numRequestsPerSession 73
param **.source_007.numApps 1
param **.source_007.app[0].typename "\"TcpBasicClientApp\""
param **.source_007.app[0].localAddress "\"\""
param **.source_007.app[0].connectAddress "\"sink_007\""
param **.source_007.app[0].connectPort 1100
param **.source_007.app[0].startTime 0s
param **.source_007.app[0].idleInterval 1000s
param **.source_007.app[0].requestLength 1300B
param **.source_007.app[0].replyLength 20B
param **.source_007.app[0].thinkTime 0s
param **.source_007.app[0].numRequestsPerSession 635
param **.source_008.numApps 1
param **.source_008.app[0].typename "\"TcpBasicClientApp\""
param **.source_008.app[0].localAddress "\"\""
param **.source_008.app[0].connectAddress "\"sink_008\""
param **.source_008.app[0].connectPort 1100
param **.source_008.app[0].startTime 0s
param **.source_008.app[0].idleInterval 1000s
param **.source_008.app[0].requestLength 1300B
param **.source_008.app[0].replyLength 20B
param **.source_008.app[0].thinkTime 0s
param **.source_008.app[0].numRequestsPerSession 2
param **.source_009.numApps 1
param **.source_009.app[0].typename "\"TcpBasicClientApp\""
param **.source_009.app[0].localAddress "\"\""
param **.source_009.app[0].connectAddress "\"sink_009\""
param **.source_009.app[0].connectPort 1100
param **.source_009.app[0].startTime 0s
param **.source_009.app[0].idleInterval 1000s
param **.source_009.app[0].requestLength 1300B
param **.source_009.app[0].replyLength 20B
param **.source_009.app[0].thinkTime 0s
param **.source_009.app[0].numRequestsPerSession 4
param **.source_010.numApps 1
param **.source_010.app[0].typename "\"TcpBasicClientApp\""
param **.source_010.app[0].localAddress "\"\""
param **.source_010.app[0].connectAddress "\"sink_010\""
param **.source_010.app[0].connectPort 1100
param **.source_010.app[0].startTime 0s
param **.source_010.app[0].idleInterval 1000s
param **.source_010.app[0].requestLength 1300B
param **.source_010.app[0].replyLength 20B
param **.source_010.app[0].thinkTime 0s
param **.source_010.app[0].numRequestsPerSession 2
param **.source_011.numApps 1
param **.source_011.app[0].typename "\"TcpBasicClientApp\""
param **.source_011.app[0].localAddress "\"\""
param **.source_011.app[0].connectAddress "\"sink_011\""
param **.source_011.app[0].connectPort 1100
param **.source_011.app[0].startTime 0s
param **.source_011.app[0].idleInterval 1000s
param **.source_011.app[0].requestLength 1300B
param **.source_011.app[0].replyLength 20B
param **.source_011.app[0].thinkTime 0s
param **.source_011.app[0].numRequestsPerSession 8
param **.source_012.numApps 1
param **.source_012.app[0].typename "\"TcpBasicClientApp\""
param **.source_012.app[0].localAddress "\"\""
param **.source_012.app[0].connectAddress "\"sink_012\""
param **.source_012.app[0].connectPort 1100
param **.source_012.app[0].startTime 0s
param **.source_012.app[0].idleInterval 1000s
param **.source_012.app[0].requestLength 1300B
param **.source_012.app[0].replyLength 20B
param **.source_012.app[0].thinkTime 0s
param **.source_012.app[0].numRequestsPerSession 5
param **.source_013.numApps 1
param **.source_013.app[0].typename "\"TcpBasicClientApp\""
param **.source_013.app[0].localAddress "\"\""
param **.source_013.app[0].connectAddress "\"sink_013\""
param **.source_013.app[0].connectPort 1100
param **.source_013.app[0].startTime 0s
param **.source_013.app[0].idleInterval 1000s
param **.source_013.app[0].requestLength 1300B
param **.source_013.app[0].replyLength 20B
param **.source_013.app[0].thinkTime 0s
param **.source_013.app[0].numRequestsPerSession 7
param **.source_014.numApps 1
param **.source_014.app[0].typename "\"TcpBasicClientApp\""
param **.source_014.app[0].localAddress "\"\""
param **.source_014.app[0].connectAddress "\"sink_014\""
param **.source_014.app[0].connectPort 1100
param **.source_014.app[0].startTime 0s
param **.source_014.app[0].idleInterval 1000s
param **.source_014.app[0].requestLength 1300B
param **.source_014.app[0].replyLength 20B
param **.source_014.app[0].thinkTime 0s
param **.source_014.app[0].numRequestsPerSession 5
param **.source_015.numApps 1
param **.source_015.app[0].typename "\"TcpBasicClientApp\""
param **.source_015.app[0].localAddress "\"\""
param **.source_015.app[0].connectAddress "\"sink_015\""
param **.source_015.app[0].connectPort 1100
param **.source_015.app[0].startTime 0s
param **.source_015.app[0].idleInterval 1000s
param **.source_015.app[0].requestLength 1300B
param **.source_015.app[0].replyLength 20B
param **.source_015.app[0].thinkTime 0s
param **.source_015.app[0].numRequestsPerSession 171
param **.source_016.numApps 1
param **.source_016.app[0].typename "\"TcpBasicClientApp\""
param **.source_016.app[0].localAddress "\"\""
param **.source_016.app[0].connectAddress "\"sink_016\""
param **.source_016.app[0].connectPort 1100
param **.source_016.app[0].startTime 0s
param **.source_016.app[0].idleInterval 1000s
param **.source_016.app[0].requestLength 1300B
param **.source_016.app[0].replyLength 20B
param **.source_016.app[0].thinkTime 0s
param **.source_016.app[0].numRequestsPerSession 2
param **.source_017.numApps 1
param **.source_017.app[0].typename "\"TcpBasicClientApp\""
param **.source_017.app[0].localAddress "\"\""
param **.source_017.app[0].connectAddress "\"sink_017\""
param **.source_017.app[0].connectPort 1100
param **.source_017.app[0].startTime 0s
param **.source_017.app[0].idleInterval 1000s
param **.source_017.app[0].requestLength 1300B
param **.source_017.app[0].replyLength 20B
param **.source_017.app[0].thinkTime 0s
param **.source_017.app[0].numRequestsPerSession 6
param **.source_018.numApps 1
param **.source_018.app[0].typename "\"TcpBasicClientApp\""
param **.source_018.app[0].localAddress "\"\""
param **.source_018.app[0].connectAddress "\"sink_018\""
param **.source_018.app[0].connectPort 1100
param **.source_018.app[0].startTime 0s
param **.source_018.app[0].idleInterval 1000s
param **.source_018.app[0].requestLength 1300B
param **.source_018.app[0].replyLength 20B
param **.source_018.app[0].thinkTime 0s
param **.source_018.app[0].numRequestsPerSession 21
param **.source_019.numApps 1
param **.source_019.app[0].typename "\"TcpBasicClientApp\""
param **.source_019.app[0].localAddress "\"\""
param **.source_019.app[0].connectAddress "\"sink_019\""
param **.source_019.app[0].connectPort 1100
param **.source_019.app[0].startTime 0s
param **.source_019.app[0].idleInterval 1000s
param **.source_019.app[0].requestLength 1300B
param **.source_019.app[0].replyLength 20B
param **.source_019.app[0].thinkTime 0s
param **.source_019.app[0].numRequestsPerSession 3
param **.source_020.numApps 1
param **.source_020.app[0].typename "\"TcpBasicClientApp\""
param **.source_020.app[0].localAddress "\"\""
param **.source_020.app[0].connectAddress "\"sink_020\""
param **.source_020.app[0].connectPort 1100
param **.source_020.app[0].startTime 0s
param **.source_020.app[0].idleInterval 1000s
param **.source_020.app[0].requestLength 1300B
param **.source_020.app[0].replyLength 20B
param **.source_020.app[0].thinkTime 0s
param **.source_020.app[0].numRequestsPerSession 27
param **.source_021.numApps 1
param **.source_021.app[0].typename "\"TcpBasicClientApp\""
param **.source_021.app[0].localAddress "\"\""
param **.source_021.app[0].connectAddress "\"sink_021\""
param **.source_021.app[0].connectPort 1100
param **.source_021.app[0].startTime 0s
param **.source_021.app[0].idleInterval 1000s
param **.source_021.app[0].requestLength 1300B
param **.source_021.app[0].replyLength 20B
param **.source_021.app[0].thinkTime 0s
param **.source_021.app[0].numRequestsPerSession 113
param **.source_022.numApps 1
param **.source_022.app[0].typename "\"TcpBasicClientApp\""
param **.source_022.app[0].localAddress "\"\""
param **.source_022.app[0].connectAddress "\"sink_022\""
param **.source_022.app[0].connectPort 1100
param **.source_022.app[0].startTime 0s
param **.source_022.app[0].idleInterval 1000s
param **.source_022.app[0].requestLength 1300B
param **.source_022.app[0].replyLength 20B
param **.source_022.app[0].thinkTime 0s
param **.source_022.app[0].numRequestsPerSession 12
param **.source_023.numApps 1
param **.source_023.app[0].typename "\"TcpBasicClientApp\""
param **.source_023.app[0].localAddress "\"\""
param **.source_023.app[0].connectAddress "\"sink_023\""
param **.source_023.app[0].connectPort 1100
param **.source_023.app[0].startTime 0s
param **.source_023.app[0].idleInterval 1000s
param **.source_023.app[0].requestLength 1300B
param **.source_023.app[0].replyLength 20B
param **.source_023.app[0].thinkTime 0s
param **.source_023.app[0].numRequestsPerSession 2
param **.source_024.numApps 1
param **.source_024.app[0].typename "\"TcpBasicClientApp\""
param **.source_024.app[0].localAddress "\"\""
param **.source_024.app[0].connectAddress "\"sink_024\""
param **.source_024.app[0].connectPort 1100
param **.source_024.app[0].startTime 0s
param **.source_024.app[0].idleInterval 1000s
param **.source_024.app[0].requestLength 1300B
param **.source_024.app[0].replyLength 20B
param **.source_024.app[0].thinkTime 0s
param **.source_024.app[0].numRequestsPerSession 214
param **.source_025.numApps 1
param **.source_025.app[0].typename "\"TcpBasicClientApp\""
param **.source_025.app[0].localAddress "\"\""
param **.source_025.app[0].connectAddress "\"sink_025\""
param **.source_025.app[0].connectPort 1100
param **.source_025.app[0].startTime 0s
param **.source_025.app[0].idleInterval 1000s
param **.source_025.app[0].requestLength 1300B
param **.source_025.app[0].replyLength 20B
param **.source_025.app[0].thinkTime 0s
param **.source_025.app[0].numRequestsPerSession 5
param **.source_026.numApps 1
param **.source_026.app[0].typename "\"TcpBasicClientApp\""
param **.source_026.app[0].localAddress "\"\""
param **.source_026.app[0].connectAddress "\"sink_026\""
param **.source_026.app[0].connectPort 1100
param **.source_026.app[0].startTime 0s
param **.source_026.app[0].idleInterval 1000s
param **.source_026.app[0].requestLength 1300B
param **.source_026.app[0].replyLength 20B
param **.source_026.app[0].thinkTime 0s
param **.source_026.app[0].numRequestsPerSession 9
param **.source_027.numApps 1
param **.source_027.app[0].typename "\"TcpBasicClientApp\""
param **.source_027.app[0].localAddress "\"\""
param **.source_027.app[0].connectAddress "\"sink_027\""
param **.source_027.app[0].connectPort 1100
param **.source_027.app[0].startTime 0s
param **.source_027.app[0].idleInterval 1000s
param **.source_027.app[0].requestLength 1300B
param **.source_027.app[0].replyLength 20B
param **.source_027.app[0].thinkTime 0s
param **.source_027.app[0].numRequestsPerSession 12
param **.source_028.numApps 1
param **.source_028.app[0].typename "\"TcpBasicClientApp\""
param **.source_028.app[0].localAddress "\"\""
param **.source_028.app[0].connectAddress "\"sink_028\""
param **.source_028.app[0].connectPort 1100
param **.source_028.app[0].startTime 0s
param **.source_028.app[0].idleInterval 1000s
param **.source_028.app[0].requestLength 1300B
param **.source_028.app[0].replyLength 20B
param **.source_028.app[0].thinkTime 0s
param **.source_028.app[0].numRequestsPerSession 7
param **.source_029.numApps 1
param **.source_029.app[0].typename "\"TcpBasicClientApp\""
param **.source_029.app[0].localAddress "\"\""
param **.source_029.app[0].connectAddress "\"sink_029\""
param **.source_029.app[0].connectPort 1100
param **.source_029.app[0].startTime 0s
param **.source_029.app[0].idleInterval 1000s
param **.source_029.app[0].requestLength 1300B
param **.source_029.app[0].replyLength 20B
param **.source_029.app[0].thinkTime 0s
param **.source_029.app[0].numRequestsPerSession 3
param **.source_030.numApps 1
param **.source_030.app[0].typename "\"TcpBasicClientApp\""
param **.source_030.app[0].localAddress "\"\""
param **.source_030.app[0].connectAddress "\"sink_030\""
param **.source_030.app[0].connectPort 1100
param **.source_030.app[0].startTime 0s
param **.source_030.app[0].idleInterval 1000s
param **.source_030.app[0].requestLength 1300B
param **.source_030.app[0].replyLength 20B
param **.source_030.app[0].thinkTime 0s
param **.source_030.app[0].numRequestsPerSession 23
param **.source_031.numApps 1
param **.source_031.app[0].typename "\"TcpBasicClientApp\""
param **.source_031.app[0].localAddress "\"\""
param **.source_031.app[0].connectAddress "\"sink_031\""
param **.source_031.app[0].connectPort 1100
param **.source_031.app[0].startTime 0s
param **.source_031.app[0].idleInterval 1000s
param **.source_031.app[0].requestLength 1300B
param **.source_031.app[0].replyLength 20B
param **.source_031.app[0].thinkTime 0s
param **.source_031.app[0].numRequestsPerSession 3
param **.source_032.numApps 1
param **.source_032.app[0].typename "\"TcpBasicClientApp\""
param **.source_032.app[0].localAddress "\"\""
param **.source_032.app[0].connectAddress "\"sink_032\""
param **.source_032.app[0].connectPort 1100
param **.source_032.app[0].startTime 0s
param **.source_032.app[0].idleInterval 1000s
param **.source_032.app[0].requestLength 1300B
param **.source_032.app[0].replyLength 20B
param **.source_032.app[0].thinkTime 0s
param **.source_032.app[0].numRequestsPerSession 4
param **.source_033.numApps 1
param **.source_033.app[0].typename "\"TcpBasicClientApp\""
param **.source_033.app[0].localAddress "\"\""
param **.source_033.app[0].connectAddress "\"sink_033\""
param **.source_033.app[0].connectPort 1100
param **.source_033.app[0].startTime 0s
param **.source_033.app[0].idleInterval 1000s
param **.source_033.app[0].requestLength 1300B
param **.source_033.app[0].replyLength 20B
param **.source_033.app[0].thinkTime 0s
param **.source_033.app[0].numRequestsPerSession 1
param **.source_034.numApps 1
param **.source_034.app[0].typename "\"TcpBasicClientApp\""
param **.source_034.app[0].localAddress "\"\""
param **.source_034.app[0].connectAddress "\"sink_034\""
param **.source_034.app[0].connectPort 1100
param **.source_034.app[0].startTime 0s
param **.source_034.app[0].idleInterval 1000s
param **.source_034.app[0].requestLength 1300B
param **.source_034.app[0].replyLength 20B
param **.source_034.app[0].thinkTime 0s
param **.source_034.app[0].numRequestsPerSession 10
param **.source_035.numApps 1
param **.source_035.app[0].typename "\"TcpBasicClientApp\""
param **.source_035.app[0].localAddress "\"\""
param **.source_035.app[0].connectAddress "\"sink_035\""
param **.source_035.app[0].connectPort 1100
param **.source_035.app[0].startTime 0s
param **.source_035.app[0].idleInterval 1000s
param **.source_035.app[0].requestLength 1300B
param **.source_035.app[0].replyLength 20B
param **.source_035.app[0].thinkTime 0s
param **.source_035.app[0].numRequestsPerSession 11
param **.source_036.numApps 1
param **.source_036.app[0].typename "\"TcpBasicClientApp\""
param **.source_036.app[0].localAddress "\"\""
param **.source_036.app[0].connectAddress "\"sink_036\""
param **.source_036.app[0].connectPort 1100
param **.source_036.app[0].startTime 0s
param **.source_036.app[0].idleInterval 1000s
param **.source_036.app[0].requestLength 1300B
param **.source_036.app[0].replyLength 20B
param **.source_036.app[0].thinkTime 0s
param **.source_036.app[0].numRequestsPerSession 10
param **.source_037.numApps 1
param **.source_037.app[0].typename "\"TcpBasicClientApp\""
param **.source_037.app[0].localAddress "\"\""
param **.source_037.app[0].connectAddress "\"sink_037\""
param **.source_037.app[0].connectPort 1100
param **.source_037.app[0].startTime 0s
param **.source_037.app[0].idleInterval 1000s
param **.source_037.app[0].requestLength 1300B
param **.source_037.app[0].replyLength 20B
param **.source_037.app[0].thinkTime 0s
param **.source_037.app[0].numRequestsPerSession 6
param **.source_038.numApps 1
param **.source_038.app[0].typename "\"TcpBasicClientApp\""
param **.source_038.app[0].localAddress "\"\""
param **.source_038.app[0].connectAddress "\"sink_038\""
param **.source_038.app[0].connectPort 1100
param **.source_038.app[0].startTime 0s
param **.source_038.app[0].idleInterval 1000s
param **.source_038.app[0].requestLength 1300B
param **.source_038.app[0].replyLength 20B
param **.source_038.app[0].thinkTime 0s
param **.source_038.app[0].numRequestsPerSession 28
param **.source_039.numApps 1
param **.source_039.app[0].typename "\"TcpBasicClientApp\""
param **.source_039.app[0].localAddress "\"\""
param **.source_039.app[0].connectAddress "\"sink_039\""
param **.source_039.app[0].connectPort 1100
param **.source_039.app[0].startTime 0s
param **.source_039.app[0].idleInterval 1000s
param **.source_039.app[0].requestLength 1300B
param **.source_039.app[0].replyLength 20B
param **.source_039.app[0].thinkTime 0s
param **.source_039.app[0].numRequestsPerSession 63
param **.tcp.mss 1400
param **.tcp.tcpAlgorithmClass "\"TcpReno\""
param **.tcp.crcMode "\"computed\""
param **.app[*].dataTransferMode "\"object\""

vector 0 Jellyfish_8_8_7_8__jelly_vary_num_switches_seed8.source_000.app[0] numActiveSessions:vector ETV
attr interpolationmode sample-hold
attr source sum(connect)
attr title "number of active sessions, vector"
vector 1 Jellyfish_8_8_7_8__jelly_vary_num_switches_seed8.source_001.app[0] numActiveSessions:vector ETV
attr interpolationmode sample-hold
attr source sum(connect)
attr title "number of active sessions, vector"
vector 2 Jellyfish_8_8_7_8__jelly_vary_num_switches_seed8.source_002.app[0] numActiveSessions:vector ETV
attr interpolationmode sample-hold
attr source sum(connect)
attr title "number of active sessions, vector"
vector 3 Jellyfish_8_8_7_8__jelly_vary_num_switches_seed8.source_003.app[0] numActiveSessions:vector ETV
attr interpolationmode sample-hold
attr source sum(connect)
attr title "number of active sessions, vector"
vector 4 Jellyfish_8_8_7_8__jelly_vary_num_switches_seed8.source_004.app[0] numActiveSessions:vector ETV
attr interpolationmode sample-hold
attr source sum(connect)
attr title "number of active sessions, vector"
vector 5 Jellyfish_8_8_7_8__jelly_vary_num_switches_seed8.source_005.app[0] numActiveSessions:vector ETV
attr interpolationmode sample-hold
attr source sum(connect)
attr title "number of active sessions, vector"
vector 6 Jellyfish_8_8_7_8__jelly_vary_num_switches_seed8.source_006.app[0] numActiveSessions:vector ETV
attr interpolationmode sample-hold
attr source sum(connect)
attr title "number of active sessions, vector"
vector 7 Jellyfish_8_8_7_8__jelly_vary_num_switches_seed8.source_007.app[0] numActiveSessions:vector ETV
attr interpolationmode sample-hold
attr source sum(connect)
attr title "number of active sessions, vector"
vector 8 Jellyfish_8_8_7_8__jelly_vary_num_switches_seed8.source_008.app[0] numActiveSessions:vector ETV
attr interpolationmode sample-hold
attr source sum(connect)
attr title "number of active sessions, vector"
vector 9 Jellyfish_8_8_7_8__jelly_vary_num_switches_seed8.source_009.app[0] numActiveSessions:vector ETV
attr interpolationmode sample-hold
attr source sum(connect)
attr title "number of active sessions, vector"
vector 10 Jellyfish_8_8_7_8__jelly_vary_num_switches_seed8.source_010.app[0] numActiveSessions:vector ETV
attr interpolationmode sample-hold
attr source sum(connect)
attr title "number of active sessions, vector"
vector 11 Jellyfish_8_8_7_8__jelly_vary_num_switches_seed8.source_011.app[0] numActiveSessions:vector ETV
attr interpolationmode sample-hold
attr source sum(connect)
attr title "number of active sessions, vector"
vector 12 Jellyfish_8_8_7_8__jelly_vary_num_switches_seed8.source_012.app[0] numActiveSessions:vector ETV
attr interpolationmode sample-hold
attr source sum(connect)
attr title "number of active sessions, vector"
vector 13 Jellyfish_8_8_7_8__jelly_vary_num_switches_seed8.source_013.app[0] numActiveSessions:vector ETV
attr interpolationmode sample-hold
attr source sum(connect)
attr title "number of active sessions, vector"
vector 14 Jellyfish_8_8_7_8__jelly_vary_num_switches_seed8.source_014.app[0] numActiveSessions:vector ETV
attr interpolationmode sample-hold
attr source sum(connect)
attr title "number of active sessions, vector"
vector 15 Jellyfish_8_8_7_8__jelly_vary_num_switches_seed8.source_015.app[0] numActiveSessions:vector ETV
attr interpolationmode sample-hold
attr source sum(connect)
attr title "number of active sessions, vector"
vector 16 Jellyfish_8_8_7_8__jelly_vary_num_switches_seed8.source_016.app[0] numActiveSessions:vector ETV
attr interpolationmode sample-hold
attr source sum(connect)
attr title "number of active sessions, vector"
vector 17 Jellyfish_8_8_7_8__jelly_vary_num_switches_seed8.source_017.app[0] numActiveSessions:vector ETV
attr interpolationmode sample-hold
attr source sum(connect)
attr title "number of active sessions, vector"
vector 18 Jellyfish_8_8_7_8__jelly_vary_num_switches_seed8.source_018.app[0] numActiveSessions:vector ETV
attr interpolationmode sample-hold
attr source sum(connect)
attr title "number of active sessions, vector"
vector 19 Jellyfish_8_8_7_8__jelly_vary_num_switches_seed8.source_019.app[0] numActiveSessions:vector ETV
attr interpolationmode sample-hold
attr source sum(connect)
attr title "number of active sessions, vector"
vector 20 Jellyfish_8_8_7_8__jelly_vary_num_switches_seed8.source_020.app[0] numActiveSessions:vector ETV
attr interpolationmode sample-hold
attr source sum(connect)
attr title "number of active sessions, vector"
vector 21 Jellyfish_8_8_7_8__jelly_vary_num_switches_seed8.source_021.app[0] numActiveSessions:vector ETV
attr interpolationmode sample-hold
attr source sum(connect)
attr title "number of active sessions, vector"
vector 22 Jellyfish_8_8_7_8__jelly_vary_num_switches_seed8.source_022.app[0] numActiveSessions:vector ETV
attr interpolationmode sample-hold
attr source sum(connect)
attr title "number of active sessions, vector"
vector 23 Jellyfish_8_8_7_8__jelly_vary_num_switches_seed8.source_023.app[0] numActiveSessions:vector ETV
attr interpolationmode sample-hold
attr source sum(connect)
attr title "number of active sessions, vector"
vector 24 Jellyfish_8_8_7_8__jelly_vary_num_switches_seed8.source_024.app[0] numActiveSessions:vector ETV
attr interpolationmode sample-hold
attr source sum(connect)
attr title "number of active sessions, vector"
vector 25 Jellyfish_8_8_7_8__jelly_vary_num_switches_seed8.source_025.app[0] numActiveSessions:vector ETV
attr interpolationmode sample-hold
attr source sum(connect)
attr title "number of active sessions, vector"
vector 26 Jellyfish_8_8_7_8__jelly_vary_num_switches_seed8.source_026.app[0] numActiveSessions:vector ETV
attr interpolationmode sample-hold
attr source sum(connect)
attr title "number of active sessions, vector"
vector 27 Jellyfish_8_8_7_8__jelly_vary_num_switches_seed8.source_027.app[0] numActiveSessions:vector ETV
attr interpolationmode sample-hold
attr source sum(connect)
attr title "number of active sessions, vector"
vector 28 Jellyfish_8_8_7_8__jelly_vary_num_switches_seed8.source_028.app[0] numActiveSessions:vector ETV
attr interpolationmode sample-hold
attr source sum(connect)
attr title "number of active sessions, vector"
vector 29 Jellyfish_8_8_7_8__jelly_vary_num_switches_seed8.source_029.app[0] numActiveSessions:vector ETV
attr interpolationmode sample-hold
attr source sum(connect)
attr title "number of active sessions, vector"
vector 30 Jellyfish_8_8_7_8__jelly_vary_num_switches_seed8.source_030.app[0] numActiveSessions:vector ETV
attr interpolationmode sample-hold
attr source sum(connect)
attr title "number of active sessions, vector"
vector 31 Jellyfish_8_8_7_8__jelly_vary_num_switches_seed8.source_031.app[0] numActiveSessions:vector ETV
attr interpolationmode sample-hold
attr source sum(connect)
attr title "number of active sessions, vector"
vector 32 Jellyfish_8_8_7_8__jelly_vary_num_switches_seed8.source_032.app[0] numActiveSessions:vector ETV
attr interpolationmode sample-hold
attr source sum(connect)
attr title "number of active sessions, vector"
vector 33 Jellyfish_8_8_7_8__jelly_vary_num_switches_seed8.source_033.app[0] numActiveSessions:vector ETV
attr interpolationmode sample-hold
attr source sum(connect)
attr title "number of active sessions, vector"
vector 34 Jellyfish_8_8_7_8__jelly_vary_num_switches_seed8.source_034.app[0] numActiveSessions:vector ETV
attr interpolationmode sample-hold
attr source sum(connect)
attr title "number of active sessions, vector"
vector 35 Jellyfish_8_8_7_8__jelly_vary_num_switches_seed8.source_035.app[0] numActiveSessions:vector ETV
attr interpolationmode sample-hold
attr source sum(connect)
attr title "number of active sessions, vector"
vector 36 Jellyfish_8_8_7_8__jelly_vary_num_switches_seed8.source_036.app[0] numActiveSessions:vector ETV
attr interpolationmode sample-hold
attr source sum(connect)
attr title "number of active sessions, vector"
vector 37 Jellyfish_8_8_7_8__jelly_vary_num_switches_seed8.source_037.app[0] numActiveSessions:vector ETV
attr interpolationmode sample-hold
attr source sum(connect)
attr title "number of active sessions, vector"
vector 38 Jellyfish_8_8_7_8__jelly_vary_num_switches_seed8.source_038.app[0] numActiveSessions:vector ETV
attr interpolationmode sample-hold
attr source sum(connect)
attr title "number of active sessions, vector"
vector 39 Jellyfish_8_8_7_8__jelly_vary_num_switches_seed8.source_039.app[0] numActiveSessions:vector ETV
attr interpolationmode sample-hold
attr source sum(connect)
attr title "number of active sessions, vector"
vector 40 Jellyfish_8_8_7_8__jelly_vary_num_switches_seed8.sink_004.app[0] endToEndDelay:vector ETV
attr interpolationmode none
attr source dataAge(packetReceived)
attr title "end-to-end delay, vector"
attr unit s
vector 41 Jellyfish_8_8_7_8__jelly_vary_num_switches_seed8.sink_012.app[0] endToEndDelay:vector ETV
attr interpolationmode none
attr source dataAge(packetReceived)
attr title "end-to-end delay, vector"
attr unit s
vector 42 Jellyfish_8_8_7_8__jelly_vary_num_switches_seed8.source_012.app[0] endToEndDelay:vector ETV
attr interpolationmode none
attr source dataAge(packetReceived)
attr title "end-to-end delay, vector"
attr unit s
vector 43 Jellyfish_8_8_7_8__jelly_vary_num_switches_seed8.source_004.app[0] endToEndDelay:vector ETV
attr interpolationmode none
attr source dataAge(packetReceived)
attr title "end-to-end delay, vector"
attr unit s
vector 44 Jellyfish_8_8_7_8__jelly_vary_num_switches_seed8.sink_001.app[0] endToEndDelay:vector ETV
attr interpolationmode none
attr source dataAge(packetReceived)
attr title "end-to-end delay, vector"
attr unit s
vector 45 Jellyfish_8_8_7_8__jelly_vary_num_switches_seed8.sink_007.app[0] endToEndDelay:vector ETV
attr interpolationmode none
attr source dataAge(packetReceived)
attr title "end-to-end delay, vector"
attr unit s
vector 46 Jellyfish_8_8_7_8__jelly_vary_num_switches_seed8.sink_015.app[0] endToEndDelay:vector ETV
attr interpolationmode none
attr source dataAge(packetReceived)
attr title "end-to-end delay, vector"
attr unit s
vector 47 Jellyfish_8_8_7_8__jelly_vary_num_switches_seed8.source_001.app[0] endToEndDelay:vector ETV
attr interpolationmode none
attr source dataAge(packetReceived)
attr title "end-to-end delay, vector"
attr unit s
vector 48 Jellyfish_8_8_7_8__jelly_vary_num_switches_seed8.source_007.app[0] endToEndDelay:vector ETV
attr interpolationmode none
attr source dataAge(packetReceived)
attr title "end-to-end delay, vector"
attr unit s
vector 49 Jellyfish_8_8_7_8__jelly_vary_num_switches_seed8.source_015.app[0] endToEndDelay:vector ETV
attr interpolationmode none
attr source dataAge(packetReceived)
attr title "end-to-end delay, vector"
attr unit s
vector 50 Jellyfish_8_8_7_8__jelly_vary_num_switches_seed8.sink_000.app[0] endToEndDelay:vector ETV
attr interpolationmode none
attr source dataAge(packetReceived)
attr title "end-to-end delay, vector"
attr unit s
vector 51 Jellyfish_8_8_7_8__jelly_vary_num_switches_seed8.sink_005.app[0] endToEndDelay:vector ETV
attr interpolationmode none
attr source dataAge(packetReceived)
attr title "end-to-end delay, vector"
attr unit s
vector 52 Jellyfish_8_8_7_8__jelly_vary_num_switches_seed8.sink_003.app[0] endToEndDelay:vector ETV
attr interpolationmode none
attr source dataAge(packetReceived)
attr title "end-to-end delay, vector"
attr unit s
vector 53 Jellyfish_8_8_7_8__jelly_vary_num_switches_seed8.source_000.app[0] endToEndDelay:vector ETV
attr interpolationmode none
attr source dataAge(packetReceived)
attr title "end-to-end delay, vector"
attr unit s
vector 54 Jellyfish_8_8_7_8__jelly_vary_num_switches_seed8.source_005.app[0] endToEndDelay:vector ETV
attr interpolationmode none
attr source dataAge(packetReceived)
attr title "end-to-end delay, vector"
attr unit s
vector 55 Jellyfish_8_8_7_8__jelly_vary_num_switches_seed8.source_003.app[0] endToEndDelay:vector ETV
attr interpolationmode none
attr source dataAge(packetReceived)
attr title "end-to-end delay, vector"
attr unit s
vector 56 Jellyfish_8_8_7_8__jelly_vary_num_switches_seed8.sink_002.app[0] endToEndDelay:vector ETV
attr interpolationmode none
attr source dataAge(packetReceived)
attr title "end-to-end delay, vector"
attr unit s
vector 57 Jellyfish_8_8_7_8__jelly_vary_num_switches_seed8.sink_011.app[0] endToEndDelay:vector ETV
attr interpolationmode none
attr source dataAge(packetReceived)
attr title "end-to-end delay, vector"
attr unit s
vector 58 Jellyfish_8_8_7_8__jelly_vary_num_switches_seed8.sink_016.app[0] endToEndDelay:vector ETV
attr interpolationmode none
attr source dataAge(packetReceived)
attr title "end-to-end delay, vector"
attr unit s
vector 59 Jellyfish_8_8_7_8__jelly_vary_num_switches_seed8.source_011.app[0] endToEndDelay:vector ETV
attr interpolationmode none
attr source dataAge(packetReceived)
attr title "end-to-end delay, vector"
attr unit s
vector 60 Jellyfish_8_8_7_8__jelly_vary_num_switches_seed8.source_002.app[0] endToEndDelay:vector ETV
attr interpolationmode none
attr source dataAge(packetReceived)
attr title "end-to-end delay, vector"
attr unit s
vector 61 Jellyfish_8_8_7_8__jelly_vary_num_switches_seed8.source_016.app[0] endToEndDelay:vector ETV
attr interpolationmode none
attr source dataAge(packetReceived)
attr title "end-to-end delay, vector"
attr unit s
vector 62 Jellyfish_8_8_7_8__jelly_vary_num_switches_seed8.sink_006.app[0] endToEndDelay:vector ETV
attr interpolationmode none
attr source dataAge(packetReceived)
attr title "end-to-end delay, vector"
attr unit s
vector 63 Jellyfish_8_8_7_8__jelly_vary_num_switches_seed8.sink_013.app[0] endToEndDelay:vector ETV
attr interpolationmode none
attr source dataAge(packetReceived)
attr title "end-to-end delay, vector"
attr unit s
vector 64 Jellyfish_8_8_7_8__jelly_vary_num_switches_seed8.source_006.app[0] endToEndDelay:vector ETV
attr interpolationmode none
attr source dataAge(packetReceived)
attr title "end-to-end delay, vector"
attr unit s
vector 65 Jellyfish_8_8_7_8__jelly_vary_num_switches_seed8.source_013.app[0] endToEndDelay:vector ETV
attr interpolationmode none
attr source dataAge(packetReceived)
attr title "end-to-end delay, vector"
attr unit s
vector 66 Jellyfish_8_8_7_8__jelly_vary_num_switches_seed8.sink_010.app[0] endToEndDelay:vector ETV
attr interpolationmode none
attr source dataAge(packetReceived)
attr title "end-to-end delay, vector"
attr unit s
vector 67 Jellyfish_8_8_7_8__jelly_vary_num_switches_seed8.sink_018.app[0] endToEndDelay:vector ETV
attr interpolationmode none
attr source dataAge(packetReceived)
attr title "end-to-end delay, vector"
attr unit s
vector 68 Jellyfish_8_8_7_8__jelly_vary_num_switches_seed8.source_010.app[0] endToEndDelay:vector ETV
attr interpolationmode none
attr source dataAge(packetReceived)
attr title "end-to-end delay, vector"
attr unit s
vector 69 Jellyfish_8_8_7_8__jelly_vary_num_switches_seed8.source_018.app[0] endToEndDelay:vector ETV
attr interpolationmode none
attr source dataAge(packetReceived)
attr title "end-to-end delay, vector"
attr unit s
vector 70 Jellyfish_8_8_7_8__jelly_vary_num_switches_seed8.sink_014.app[0] endToEndDelay:vector ETV
attr interpolationmode none
attr source dataAge(packetReceived)
attr title "end-to-end delay, vector"
attr unit s
vector 71 Jellyfish_8_8_7_8__jelly_vary_num_switches_seed8.sink_009.app[0] endToEndDelay:vector ETV
attr interpolationmode none
attr source dataAge(packetReceived)
attr title "end-to-end delay, vector"
attr unit s
vector 72 Jellyfish_8_8_7_8__jelly_vary_num_switches_seed8.source_009.app[0] endToEndDelay:vector ETV
attr interpolationmode none
attr source dataAge(packetReceived)
attr title "end-to-end delay, vector"
attr unit s
vector 73 Jellyfish_8_8_7_8__jelly_vary_num_switches_seed8.source_014.app[0] endToEndDelay:vector ETV
attr interpolationmode none
attr source dataAge(packetReceived)
attr title "end-to-end delay, vector"
attr unit s
vector 74 Jellyfish_8_8_7_8__jelly_vary_num_switches_seed8.sink_022.app[0] endToEndDelay:vector ETV
attr interpolationmode none
attr source dataAge(packetReceived)
attr title "end-to-end delay, vector"
attr unit s
vector 75 Jellyfish_8_8_7_8__jelly_vary_num_switches_seed8.source_022.app[0] endToEndDelay:vector ETV
attr interpolationmode none
attr source dataAge(packetReceived)
attr title "end-to-end delay, vector"
attr unit s
vector 76 Jellyfish_8_8_7_8__jelly_vary_num_switches_seed8.sink_017.app[0] endToEndDelay:vector ETV
attr interpolationmode none
attr source dataAge(packetReceived)
attr title "end-to-end delay, vector"
attr unit s
vector 77 Jellyfish_8_8_7_8__jelly_vary_num_switches_seed8.sink_008.app[0] endToEndDelay:vector ETV
attr interpolationmode none
attr source dataAge(packetReceived)
attr title "end-to-end delay, vector"
attr unit s
vector 78 Jellyfish_8_8_7_8__jelly_vary_num_switches_seed8.source_017.app[0] endToEndDelay:vector ETV
attr interpolationmode none
attr source dataAge(packetReceived)
attr title "end-to-end delay, vector"
attr unit s
vector 79 Jellyfish_8_8_7_8__jelly_vary_num_switches_seed8.source_008.app[0] endToEndDelay:vector ETV
attr interpolationmode none
attr source dataAge(packetReceived)
attr title "end-to-end delay, vector"
attr unit s
vector 80 Jellyfish_8_8_7_8__jelly_vary_num_switches_seed8.sink_020.app[0] endToEndDelay:vector ETV
attr interpolationmode none
attr source dataAge(packetReceived)
attr title "end-to-end delay, vector"
attr unit s
vector 81 Jellyfish_8_8_7_8__jelly_vary_num_switches_seed8.source_020.app[0] endToEndDelay:vector ETV
attr interpolationmode none
attr source dataAge(packetReceived)
attr title "end-to-end delay, vector"
attr unit s
vector 82 Jellyfish_8_8_7_8__jelly_vary_num_switches_seed8.sink_019.app[0] endToEndDelay:vector ETV
attr interpolationmode none
attr source dataAge(packetReceived)
attr title "end-to-end delay, vector"
attr unit s
vector 83 Jellyfish_8_8_7_8__jelly_vary_num_switches_seed8.source_019.app[0] endToEndDelay:vector ETV
attr interpolationmode none
attr source dataAge(packetReceived)
attr title "end-to-end delay, vector"
attr unit s
vector 84 Jellyfish_8_8_7_8__jelly_vary_num_switches_seed8.sink_021.app[0] endToEndDelay:vector ETV
attr interpolationmode none
attr source dataAge(packetReceived)
attr title "end-to-end delay, vector"
attr unit s
vector 85 Jellyfish_8_8_7_8__jelly_vary_num_switches_seed8.source_021.app[0] endToEndDelay:vector ETV
attr interpolationmode none
attr source dataAge(packetReceived)
attr title "end-to-end delay, vector"
attr unit s
vector 86 Jellyfish_8_8_7_8__jelly_vary_num_switches_seed8.sink_023.app[0] endToEndDelay:vector ETV
attr interpolationmode none
attr source dataAge(packetReceived)
attr title "end-to-end delay, vector"
attr unit s
vector 87 Jellyfish_8_8_7_8__jelly_vary_num_switches_seed8.source_023.app[0] endToEndDelay:vector ETV
attr interpolationmode none
attr source dataAge(packetReceived)
attr title "end-to-end delay, vector"
attr unit s
vector 88 Jellyfish_8_8_7_8__jelly_vary_num_switches_seed8.sink_026.app[0] endToEndDelay:vector ETV
attr interpolationmode none
attr source dataAge(packetReceived)
attr title "end-to-end delay, vector"
attr unit s
vector 89 Jellyfish_8_8_7_8__jelly_vary_num_switches_seed8.source_026.app[0] endToEndDelay:vector ETV
attr interpolationmode none
attr source dataAge(packetReceived)
attr title "end-to-end delay, vector"
attr unit s
vector 90 Jellyfish_8_8_7_8__jelly_vary_num_switches_seed8.sink_025.app[0] endToEndDelay:vector ETV
attr interpolationmode none
attr source dataAge(packetReceived)
attr title "end-to-end delay, vector"
attr unit s
vector 91 Jellyfish_8_8_7_8__jelly_vary_num_switches_seed8.source_025.app[0] endToEndDelay:vector ETV
attr interpolationmode none
attr source dataAge(packetReceived)
attr title "end-to-end delay, vector"
attr unit s
vector 92 Jellyfish_8_8_7_8__jelly_vary_num_switches_seed8.sink_024.app[0] endToEndDelay:vector ETV
attr interpolationmode none
attr source dataAge(packetReceived)
attr title "end-to-end delay, vector"
attr unit s
vector 93 Jellyfish_8_8_7_8__jelly_vary_num_switches_seed8.source_024.app[0] endToEndDelay:vector ETV
attr interpolationmode none
attr source dataAge(packetReceived)
attr title "end-to-end delay, vector"
attr unit s
vector 94 Jellyfish_8_8_7_8__jelly_vary_num_switches_seed8.sink_027.app[0] endToEndDelay:vector ETV
attr interpolationmode none
attr source dataAge(packetReceived)
attr title "end-to-end delay, vector"
attr unit s
vector 95 Jellyfish_8_8_7_8__jelly_vary_num_switches_seed8.source_027.app[0] endToEndDelay:vector ETV
attr interpolationmode none
attr source dataAge(packetReceived)
attr title "end-to-end delay, vector"
attr unit s
vector 96 Jellyfish_8_8_7_8__jelly_vary_num_switches_seed8.sink_030.app[0] endToEndDelay:vector ETV
attr interpolationmode none
attr source dataAge(packetReceived)
attr title "end-to-end delay, vector"
attr unit s
vector 97 Jellyfish_8_8_7_8__jelly_vary_num_switches_seed8.source_030.app[0] endToEndDelay:vector ETV
attr interpolationmode none
attr source dataAge(packetReceived)
attr title "end-to-end delay, vector"
attr unit s
vector 98 Jellyfish_8_8_7_8__jelly_vary_num_switches_seed8.sink_029.app[0] endToEndDelay:vector ETV
attr interpolationmode none
attr source dataAge(packetReceived)
attr title "end-to-end delay, vector"
attr unit s
vector 99 Jellyfish_8_8_7_8__jelly_vary_num_switches_seed8.source_029.app[0] endToEndDelay:vector ETV
attr interpolationmode none
attr source dataAge(packetReceived)
attr title "end-to-end delay, vector"
attr unit s
vector 100 Jellyfish_8_8_7_8__jelly_vary_num_switches_seed8.sink_032.app[0] endToEndDelay:vector ETV
attr interpolationmode none
attr source dataAge(packetReceived)
attr title "end-to-end delay, vector"
attr unit s
vector 101 Jellyfish_8_8_7_8__jelly_vary_num_switches_seed8.source_032.app[0] endToEndDelay:vector ETV
attr interpolationmode none
attr source dataAge(packetReceived)
attr title "end-to-end delay, vector"
attr unit s
vector 102 Jellyfish_8_8_7_8__jelly_vary_num_switches_seed8.sink_028.app[0] endToEndDelay:vector ETV
attr interpolationmode none
attr source dataAge(packetReceived)
attr title "end-to-end delay, vector"
attr unit s
vector 103 Jellyfish_8_8_7_8__jelly_vary_num_switches_seed8.source_028.app[0] endToEndDelay:vector ETV
attr interpolationmode none
attr source dataAge(packetReceived)
attr title "end-to-end delay, vector"
attr unit s
vector 104 Jellyfish_8_8_7_8__jelly_vary_num_switches_seed8.sink_035.app[0] endToEndDelay:vector ETV
attr interpolationmode none
attr source dataAge(packetReceived)
attr title "end-to-end delay, vector"
attr unit s
vector 105 Jellyfish_8_8_7_8__jelly_vary_num_switches_seed8.source_035.app[0] endToEndDelay:vector ETV
attr interpolationmode none
attr source dataAge(packetReceived)
attr title "end-to-end delay, vector"
attr unit s
vector 106 Jellyfish_8_8_7_8__jelly_vary_num_switches_seed8.sink_031.app[0] endToEndDelay:vector ETV
attr interpolationmode none
attr source dataAge(packetReceived)
attr title "end-to-end delay, vector"
attr unit s
vector 107 Jellyfish_8_8_7_8__jelly_vary_num_switches_seed8.source_031.app[0] endToEndDelay:vector ETV
attr interpolationmode none
attr source dataAge(packetReceived)
attr title "end-to-end delay, vector"
attr unit s
vector 108 Jellyfish_8_8_7_8__jelly_vary_num_switches_seed8.sink_037.app[0] endToEndDelay:vector ETV
attr interpolationmode none
attr source dataAge(packetReceived)
attr title "end-to-end delay, vector"
attr unit s
vector 109 Jellyfish_8_8_7_8__jelly_vary_num_switches_seed8.source_037.app[0] endToEndDelay:vector ETV
attr interpolationmode none
attr source dataAge(packetReceived)
attr title "end-to-end delay, vector"
attr unit s
vector 110 Jellyfish_8_8_7_8__jelly_vary_num_switches_seed8.sink_033.app[0] endToEndDelay:vector ETV
attr interpolationmode none
attr source dataAge(packetReceived)
attr title "end-to-end delay, vector"
attr unit s
vector 111 Jellyfish_8_8_7_8__jelly_vary_num_switches_seed8.source_033.app[0] endToEndDelay:vector ETV
attr interpolationmode none
attr source dataAge(packetReceived)
attr title "end-to-end delay, vector"
attr unit s
vector 112 Jellyfish_8_8_7_8__jelly_vary_num_switches_seed8.sink_036.app[0] endToEndDelay:vector ETV
attr interpolationmode none
attr source dataAge(packetReceived)
attr title "end-to-end delay, vector"
attr unit s
vector 113 Jellyfish_8_8_7_8__jelly_vary_num_switches_seed8.source_036.app[0] endToEndDelay:vector ETV
attr interpolationmode none
attr source dataAge(packetReceived)
attr title "end-to-end delay, vector"
attr unit s
vector 114 Jellyfish_8_8_7_8__jelly_vary_num_switches_seed8.sink_034.app[0] endToEndDelay:vector ETV
attr interpolationmode none
attr source dataAge(packetReceived)
attr title "end-to-end delay, vector"
attr unit s
vector 115 Jellyfish_8_8_7_8__jelly_vary_num_switches_seed8.source_034.app[0] endToEndDelay:vector ETV
attr interpolationmode none
attr source dataAge(packetReceived)
attr title "end-to-end delay, vector"
attr unit s
vector 116 Jellyfish_8_8_7_8__jelly_vary_num_switches_seed8.sink_039.app[0] endToEndDelay:vector ETV
attr interpolationmode none
attr source dataAge(packetReceived)
attr title "end-to-end delay, vector"
attr unit s
vector 117 Jellyfish_8_8_7_8__jelly_vary_num_switches_seed8.source_039.app[0] endToEndDelay:vector ETV
attr interpolationmode none
attr source dataAge(packetReceived)
attr title "end-to-end delay, vector"
attr unit s
vector 118 Jellyfish_8_8_7_8__jelly_vary_num_switches_seed8.sink_038.app[0] endToEndDelay:vector ETV
attr interpolationmode none
attr source dataAge(packetReceived)
attr title "end-to-end delay, vector"
attr unit s
vector 119 Jellyfish_8_8_7_8__jelly_vary_num_switches_seed8.source_038.app[0] endToEndDelay:vector ETV
attr interpolationmode none
attr source dataAge(packetReceived)
attr title "end-to-end delay, vector"
attr unit s
0	41	0	1
0	21259	0.083191	0
1	42	0	1
1	143247	0.792356	0
2	43	0	1
2	381777	5.45294	0
3	44	0	1
3	336513	3.466546	0
4	45	0	1
4	288771	2.475838	0
5	46	0	1
5	84873	0.406096	0
6	47	0	1
6	121150	0.626473	0
7	48	0	1
7	363938	4.299487	0
8	49	0	1
8	9198	0.030463	0
9	50	0	1
9	13099	0.046796	0
10	51	0	1
10	7335	0.023459	0
11	52	0	1
11	17630	0.066878	0
12	53	0	1
12	34312	0.14953	0
13	54	0	1
13	47168	0.213119	0
14	55	0	1
14	36197	0.159455	0
15	56	0	1
15	210679	1.422393	0
16	57	0	1
16	14155	0.051459	0
17	58	0	1
17	42329	0.189152	0
18	59	0	1
18	82806	0.395809	0
19	60	0	1
19	24363	0.097743	0
20	61	0	1
20	98010	0.478123	0
21	62	0	1
21	191321	1.223781	0
22	63	0	1
22	64490	0.30168	0
23	64	0	1
23	17296	0.065399	0
24	65	0	1
24	261642	2.057838	0
25	66	0	1
25	37963	0.167934	0
26	67	0	1
26	54654	0.251334	0
27	68	0	1
27	68374	0.320345	0
28	69	0	1
28	50064	0.228654	0
29	70	0	1
29	26554	0.110169	0
30	71	0	1
30	86813	0.415513	0
31	72	0	1
31	27706	0.115912	0
32	73	0	1
32	32238	0.138451	0
33	74	0	1
33	11931	0.041654	0
34	75	0	1
34	62683	0.291982	0
35	76	0	1
35	62259	0.290554	0
36	77	0	1
36	59522	0.27652	0
37	78	0	1
37	43793	0.19619	0
38	79	0	1
38	100707	0.493398	0
39	80	0	1
39	130490	0.69205	0
40	3410	0.007245	0.005835
40	4958	0.013962	0.005835
40	6931	0.02179	0.005835
40	8641	0.028507	0.005835
40	10646	0.035925	0.006536
40	12597	0.044334	0.00622
40	14553	0.052698	0.006601
40	16367	0.060862	0.006268
40	18217	0.069026	0.006489
40	19940	0.07719	0.006656
40	21647	0.084895	0.006364
40	23040	0.092363	0.005835
40	24705	0.10036	0.005835
40	26243	0.108384	0.005835
40	27746	0.116393	0.005835
40	29270	0.12439	0.005835
40	30897	0.132387	0.005835
40	32554	0.140384	0.005835
40	34120	0.148381	0.005835
40	35659	0.156378	0.005835
40	37261	0.164375	0.005835
40	38890	0.172372	0.005835
40	40506	0.180369	0.005835
40	41969	0.187119	0.005835
40	43435	0.194856	0.006855
40	44615	0.20162	0.005882
40	45971	0.208337	0.005835
40	47506	0.215054	0.005835
40	48892	0.221771	0.005835
40	50015	0.22854	0.005887
40	51418	0.235264	0.005835
40	52717	0.241981	0.005835
40	54213	0.248698	0.005835
40	55537	0.25578	0.0062
40	56996	0.263811	0.007149
40	58324	0.270528	0.005835
40	59642	0.277245	0.005835
40	60943	0.283962	0.005835
40	62437	0.291252	0.006408
40	63920	0.298851	0.006717
40	65415	0.305568	0.005835
40	66731	0.312285	0.005835
40	68049	0.319002	0.005835
40	69530	0.326084	0.0062
40	70888	0.332848	0.005882
40	72154	0.339565	0.005835
40	73394	0.346282	0.005835
40	74642	0.352999	0.005835
40	76099	0.360081	0.0062
40	77359	0.366845	0.005882
40	78626	0.373562	0.005835
40	79826	0.380279	0.005835
40	81159	0.387243	0.006082
40	82475	0.394007	0.005882
40	83837	0.400724	0.005835
40	85209	0.407441	0.005835
40	86509	0.414158	0.005835
40	87756	0.42124	0.0062
40	89036	0.428039	0.005917
40	90292	0.434756	0.005835
40	91460	0.441473	0.005835
40	92651	0.44819	0.005835
40	93905	0.455478	0.006406
40	95098	0.462242	0.005882
40	96338	0.468959	0.005835
40	97522	0.475676	0.005835
40	98775	0.482393	0.005835
40	100079	0.490328	0.007046
40	101218	0.497092	0.005882
40	102397	0.503809	0.005835
40	103489	0.510526	0.005835
40	104454	0.517243	0.005835
40	105558	0.524909	0.006784
40	106549	0.531673	0.005882
40	107696	0.53839	0.005835
40	108732	0.545107	0.005835
40	109715	0.551824	0.005835
40	110825	0.558906	0.0062
40	111788	0.56567	0.005882
40	112869	0.572387	0.005835
40	113926	0.579104	0.005835
40	115006	0.585821	0.005835
40	116069	0.592903	0.0062
40	116965	0.599667	0.005882
40	118042	0.606384	0.005835
40	119193	0.613101	0.005835
40	120227	0.619818	0.005835
40	121251	0.6269	0.0062
40	122240	0.633664	0.005882
40	123293	0.640381	0.005835
40	124299	0.647098	0.005835
40	125231	0.653815	0.005835
40	126138	0.660897	0.0062
40	127012	0.667661	0.005882
40	128040	0.674378	0.005835
40	128978	0.681095	0.005835
40	129931	0.687812	0.005835
40	131083	0.694918	0.006224
40	132087	0.703129	0.006022
40	132844	0.709893	0.005882
40	133674	0.71661	0.005835
40	134508	0.723327	0.005835
40	135351	0.730044	0.005835
40	136309	0.737126	0.0062
40	137134	0.74389	0.005882
40	137957	0.750607	0.005835
40	138710	0.757324	0.005835
40	139554	0.764041	0.005835
40	140502	0.771123	0.0062
40	141349	0.777887	0.005882
40	142242	0.784604	0.005835
40	142990	0.791321	0.005835
40	143842	0.798038	0.005835
40	144683	0.80512	0.0062
40	145422	0.811884	0.005882
40	146233	0.818601	0.005835
40	146963	0.825318	0.005835
40	147660	0.832035	0.005835
40	148443	0.839117	0.0062
40	149182	0.845881	0.005882
40	149993	0.852598	0.005835
40	150723	0.859315	0.005835
40	151462	0.866032	0.005835
40	152321	0.873114	0.0062
40	152976	0.879878	0.005882
40	153787	0.886595	0.005835
40	154517	0.893312	0.005835
40	155256	0.900029	0.005835
40	156120	0.907111	0.0062
40	156843	0.913875	0.005882
40	157572	0.920592	0.005835
40	158302	0.927309	0.005835
40	159041	0.934026	0.005835
40	159911	0.941108	0.0062
40	160653	0.947872	0.005882
40	161443	0.954589	0.005835
40	162092	0.961306	0.005835
40	162831	0.968023	0.005835
40	163684	0.975105	0.0062
40	164423	0.981869	0.005882
40	165234	0.988586	0.005835
40	165922	0.995303	0.005835
40	166602	1.00202	0.005835
40	167443	1.009102	0.0062
40	168182	1.015866	0.005882
40	168993	1.022583	0.005835
40	169723	1.0293	0.005835
40	170409	1.036017	0.005835
40	171203	1.043099	0.0062
40	171945	1.049863	0.005882
40	172756	1.05658	0.005835
40	173486	1.063297	0.005835
40	174225	1.070014	0.005835
40	175047	1.077096	0.0062
40	175704	1.08386	0.005882
40	176515	1.090577	0.005835
40	177245	1.097294	0.005835
40	177984	1.104011	0.005835
40	178826	1.111093	0.0062
40	179544	1.117857	0.005882
40	180274	1.124574	0.005835
40	181004	1.131291	0.005835
40	181743	1.138008	0.005835
40	182584	1.14509	0.0062
40	183439	1.153254	0.006054
40	184179	1.160018	0.005882
40	184947	1.166735	0.005835
40	185622	1.173452	0.005835
40	186369	1.180169	0.005835
40	187202	1.187251	0.0062
40	187941	1.194015	0.005882
40	188730	1.200732	0.005835
40	189410	1.207449	0.005835
40	190131	1.214166	0.005835
40	190961	1.221248	0.0062
40	191785	1.228012	0.005882
40	192480	1.234729	0.005835
40	193135	1.241446	0.005835
40	193784	1.248163	0.005835
40	194450	1.255245	0.0062
40	195068	1.262009	0.005882
40	195739	1.268726	0.005835
40	196394	1.275443	0.005835
40	197101	1.28216	0.005835
40	197769	1.289242	0.0062
40	198349	1.296006	0.005882
40	199020	1.302723	0.005835
40	199675	1.30944	0.005835
40	200382	1.316157	0.005835
40	201108	1.323239	0.0062
40	201686	1.330003	0.005882
40	202299	1.33672	0.005835
40	202954	1.343437	0.005835
40	203661	1.350154	0.005835
40	204391	1.357236	0.0062
40	205009	1.364	0.00585
40	205650	1.370724	0.005835
40	206235	1.377448	0.005835
40	206942	1.384172	0.005835
40	207681	1.39124	0.006179
40	208300	1.398004	0.005882
40	208993	1.404721	0.005835
40	209568	1.411438	0.005835
40	210232	1.418155	0.005835
40	211056	1.425237	0.0062
40	211560	1.432001	0.005882
40	212157	1.438718	0.005835
40	212711	1.445435	0.005835
40	213181	1.452152	0.005835
40	213734	1.459234	0.0062
40	214238	1.465998	0.005882
40	214835	1.472715	0.005835
40	215432	1.479432	0.005835
40	215969	1.486149	0.005835
40	216464	1.493231	0.0062
40	216920	1.499995	0.005882
40	217517	1.506712	0.005835
40	218114	1.513429	0.005835
40	218704	1.520146	0.005835
40	219277	1.527228	0.0062
40	219646	1.533992	0.005882
40	220195	1.540709	0.005835
40	220792	1.547426	0.005835
40	221382	1.554143	0.005835
40	221974	1.561225	0.0062
40	222436	1.567989	0.005882
40	222916	1.574706	0.005835
40	223470	1.581423	0.005835
40	224060	1.58814	0.005835
40	224652	1.595222	0.0062
40	225265	1.603386	0.006147
40	225770	1.61015	0.005882
40	226324	1.616867	0.005835
40	226800	1.623584	0.005835
40	227352	1.630301	0.005835
40	227947	1.637383	0.0062
40	228451	1.644147	0.005882
40	229048	1.650864	0.005835
40	229592	1.657581	0.005835
40	230064	1.664298	0.005835
40	230625	1.67138	0.0062
40	231129	1.678144	0.005882
40	231726	1.684861	0.005835
40	232323	1.691578	0.005835
40	232855	1.698295	0.005835
40	233349	1.705377	0.0062
40	233807	1.712141	0.005882
40	234404	1.718858	0.005835
40	235001	1.725575	0.005835
40	235591	1.732292	0.005835
40	236164	1.739374	0.0062
40	236549	1.746138	0.005882
40	237106	1.752855	0.005835
40	237703	1.759572	0.005835
40	238293	1.766289	0.005835
40	238905	1.773371	0.0062
40	239366	1.780135	0.005882
40	239839	1.786852	0.005835
40	240401	1.793569	0.005835
40	240991	1.800286	0.005835
40	241624	1.807368	0.0062
40	242129	1.814132	0.005882
40	242673	1.820849	0.005835
40	243152	1.827566	0.005835
40	243711	1.834283	0.005835
40	244311	1.841365	0.0062
40	244818	1.848129	0.005882
40	245415	1.854846	0.005835
40	245951	1.861563	0.005835
40	246427	1.86828	0.005835
40	247000	1.875362	0.0062
40	247504	1.882126	0.005882
40	248101	1.888843	0.005835
40	248698	1.89556	0.005835
40	249215	1.902277	0.005835
40	249717	1.909359	0.0062
40	250182	1.916123	0.005882
40	250779	1.92284	0.005835
40	251376	1.929557	0.005835
40	251966	1.936274	0.005835
40	252509	1.943356	0.0062
40	252899	1.95012	0.005882
40	253461	1.956837	0.005835
40	254058	1.963554	0.005835
40	254648	1.970271	0.005835
40	255240	1.977353	0.0062
40	255691	1.984117	0.005882
40	256170	1.990834	0.005835
40	256736	1.997551	0.005835
40	257326	2.004268	0.005835
40	257918	2.01135	0.0062
40	258422	2.018114	0.005882
40	258958	2.024831	0.005835
40	259438	2.031548	0.005835
40	260004	2.038265	0.005835
40	260597	2.045347	0.0062
40	261210	2.053511	0.006186
40	261827	2.060275	0.005882
40	262303	2.066992	0.005835
40	262772	2.073709	0.005835
40	263166	2.080426	0.005835
40	263621	2.087508	0.0062
40	264004	2.094272	0.005882
40	264480	2.100989	0.005835
40	264956	2.107706	0.005835
40	265414	2.114423	0.005835
40	265827	2.121505	0.0062
40	266178	2.128269	0.005882
40	266654	2.134986	0.005835
40	267130	2.141703	0.005835
40	267599	2.14842	0.005835
40	268070	2.155502	0.0062
40	268383	2.162266	0.005882
40	268828	2.168983	0.005835
40	269304	2.1757	0.005835
40	269773	2.182417	0.005835
40	270268	2.189499	0.0062
40	270654	2.196263	0.005882
40	271053	2.20298	0.005835
40	271505	2.209697	0.005835
40	271974	2.216414	0.005835
40	272462	2.223496	0.0062
40	272848	2.23026	0.005882
40	273317	2.236977	0.005835
40	273718	2.243694	0.005835
40	274168	2.250411	0.005835
40	274678	2.257493	0.0062
40	275061	2.264257	0.005882
40	275537	2.270974	0.005835
40	276002	2.277691	0.005835
40	276378	2.284408	0.005835
40	276863	2.29149	0.0062
40	277247	2.298254	0.005882
40	277723	2.304971	0.005835
40	278199	2.311688	0.005835
40	278656	2.318405	0.005835
40	279072	2.325487	0.0062
40	279428	2.332251	0.005882
40	279904	2.338968	0.005835
40	280380	2.345685	0.005835
40	280849	2.352402	0.005835
40	281313	2.359484	0.0062
40	281625	2.366248	0.005882
40	282078	2.372965	0.005835
40	282554	2.379682	0.005835
40	283023	2.386399	0.005835
40	283498	2.393481	0.0062
40	283874	2.400245	0.005882
40	284275	2.406962	0.005835
40	284732	2.413679	0.005835
40	285201	2.420396	0.005835
40	285672	2.427478	0.0062
40	286055	2.434242	0.005882
40	286520	2.440959	0.005835
40	286903	2.447676	0.005835
40	287372	2.454393	0.005835
40	287846	2.461475	0.0062
40	288229	2.468239	0.005882
40	288705	2.474956	0.005835
41	3432	0.007263	0.006055
41	13333	0.047742	0.039764
41	21462	0.084174	0.035717
41	28000	0.117865	0.032976
41	34201	0.148815	0.030235
42	3543	0.007978	0.000715
42	13511	0.048457	0.000715
42	21625	0.084889	0.000715
42	28159	0.11858	0.000715
42	34312	0.14953	0.000715
43	3573	0.008127	0.000882
43	5437	0.015955	0.001993
43	7158	0.022672	0.000882
43	8827	0.029389	0.000882
43	11163	0.038114	0.002189
43	12892	0.046097	0.001763
43	14907	0.054594	0.001896
43	16650	0.062537	0.001675
43	18483	0.070534	0.001508
43	20206	0.078531	0.001341
43	21963	0.086528	0.001633
43	23493	0.094525	0.002162
43	25091	0.102549	0.002189
43	26609	0.110558	0.002174
43	28137	0.118555	0.002162
43	29687	0.126552	0.002162
43	31297	0.134549	0.002162
43	32935	0.142546	0.002162
43	34500	0.150543	0.002162
43	36010	0.15854	0.002162
43	37680	0.166537	0.002162
43	39264	0.174534	0.002162
43	40686	0.181284	0.000915
43	42128	0.188001	0.000882
43	43671	0.195738	0.000882
43	44838	0.202502	0.000882
43	46147	0.209219	0.000882
43	47659	0.215936	0.000882
43	49045	0.222653	0.000882
43	50300	0.229429	0.000889
43	51628	0.236146	0.000882
43	52916	0.242863	0.000882
43	54375	0.24958	0.000882
43	55755	0.256662	0.000882
43	57320	0.264693	0.000882
43	58599	0.27141	0.000882
43	59840	0.278127	0.000882
43	61160	0.284844	0.000882
43	62734	0.292134	0.000882
43	64176	0.299733	0.000882
43	65662	0.30645	0.000882
43	67035	0.313167	0.000882
43	68298	0.319884	0.000882
43	69749	0.326966	0.000882
43	71098	0.33373	0.000882
43	72408	0.340447	0.000882
43	73632	0.347164	0.000882
43	74888	0.353881	0.000882
43	76262	0.360963	0.000882
43	77554	0.367727	0.000882
43	78887	0.374444	0.000882
43	80118	0.381161	0.000882
43	81398	0.388125	0.000882
43	82631	0.394889	0.000882
43	84001	0.401606	0.000882
43	85548	0.408323	0.000882
43	86737	0.41504	0.000882
43	88046	0.422122	0.000882
43	89231	0.428921	0.000882
43	90505	0.435638	0.000882
43	91685	0.442355	0.000882
43	92879	0.449072	0.000882
43	94126	0.45636	0.000882
43	95243	0.463124	0.000882
43	96505	0.469841	0.000882
43	97746	0.476558	0.000882
43	99001	0.483282	0.000889
43	100317	0.49121	0.000882
43	101404	0.497974	0.000882
43	102541	0.504691	0.000882
43	103680	0.511408	0.000882
43	104663	0.518125	0.000882
43	105774	0.525791	0.000882
43	106696	0.532555	0.000882
43	107804	0.539272	0.000882
43	108920	0.545989	0.000882
43	109937	0.552706	0.000882
43	110986	0.559788	0.000882
43	111956	0.566552	0.000882
43	113014	0.573269	0.000882
43	114083	0.579986	0.000882
43	115165	0.586703	0.000882
43	116246	0.593785	0.000882
43	117170	0.600549	0.000882
43	118178	0.607266	0.000882
43	119308	0.613983	0.000882
43	120425	0.6207	0.000882
43	121518	0.627782	0.000882
43	122376	0.634546	0.000882
43	123382	0.641263	0.000882
43	124431	0.64798	0.000882
43	125419	0.654697	0.000882
43	126373	0.661779	0.000882
43	127148	0.668543	0.000882
43	128154	0.67526	0.000882
43	129146	0.681977	0.000882
43	130097	0.688694	0.000882
43	131295	0.697107	0.002189
43	132192	0.704011	0.000882
43	133007	0.710775	0.000882
43	133820	0.717492	0.000882
43	134647	0.724209	0.000882
43	135486	0.730926	0.000882
43	136391	0.738008	0.000882
43	137226	0.744772	0.000882
43	138120	0.751489	0.000882
43	138882	0.758206	0.000882
43	139682	0.764923	0.000882
43	140591	0.772005	0.000882
43	141447	0.778769	0.000882
43	142383	0.785486	0.000882
43	143200	0.792203	0.000882
43	144020	0.79892	0.000882
43	144805	0.806002	0.000882
43	145538	0.812766	0.000882
43	146369	0.819483	0.000882
43	147131	0.8262	0.000882
43	147865	0.832917	0.000882
43	148634	0.839999	0.000882
43	149321	0.846763	0.000882
43	150152	0.85348	0.000882
43	150914	0.860197	0.000882
43	151648	0.866914	0.000882
43	152481	0.873996	0.000882
43	153151	0.88076	0.000882
43	153942	0.887477	0.000882
43	154704	0.894194	0.000882
43	155438	0.900911	0.000882
43	156252	0.907993	0.000882
43	156982	0.914757	0.000882
43	157747	0.921474	0.000882
43	158474	0.928191	0.000882
43	159208	0.934908	0.000882
43	160011	0.94199	0.000882
43	160741	0.948754	0.000882
43	161572	0.955471	0.000882
43	162264	0.962188	0.000882
43	162967	0.968905	0.000882
43	163774	0.975987	0.000882
43	164504	0.982751	0.000882
43	165335	0.989468	0.000882
43	166097	0.996185	0.000882
43	166757	1.002902	0.000882
43	167533	1.009984	0.000882
43	168263	1.016748	0.000882
43	169094	1.023465	0.000882
43	169856	1.030182	0.000882
43	170583	1.036899	0.000882
43	171331	1.043981	0.000882
43	172022	1.050745	0.000882
43	172853	1.057462	0.000882
43	173615	1.064179	0.000882
43	174349	1.070896	0.000882
43	175152	1.077978	0.000882
43	175816	1.084742	0.000882
43	176612	1.091459	0.000882
43	177374	1.098176	0.000882
43	178108	1.104893	0.000882
43	178915	1.111975	0.000882
43	179645	1.118739	0.000882
43	180406	1.125456	0.000882
43	181137	1.132173	0.000882
43	181871	1.13889	0.000882
43	182738	1.1472	0.00211
43	183533	1.154136	0.000882
43	184259	1.1609	0.000882
43	185090	1.167617	0.000882
43	185767	1.174334	0.000882
43	186489	1.181051	0.000882
43	187292	1.188133	0.000882
43	188018	1.194897	0.000882
43	188849	1.201614	0.000882
43	189595	1.208331	0.000882
43	190266	1.215048	0.000882
43	191073	1.22213	0.000882
43	191892	1.228894	0.000882
43	192619	1.235611	0.000882
43	193263	1.242328	0.000882
43	193935	1.249045	0.000882
43	194611	1.256127	0.000882
43	195185	1.262891	0.000882
43	195899	1.269608	0.000882
43	196543	1.276325	0.000882
43	197226	1.283042	0.000882
43	197959	1.290124	0.000882
43	198516	1.296888	0.000882
43	199199	1.303605	0.000882
43	199843	1.310322	0.000882
43	200526	1.317039	0.000882
43	201249	1.324121	0.000882
43	201857	1.330885	0.000882
43	202494	1.337602	0.000882
43	203114	1.344319	0.000882
43	203797	1.351036	0.000882
43	204519	1.35815	0.000914
43	205124	1.364889	0.000889
43	205831	1.371613	0.000889
43	206401	1.378337	0.000889
43	207064	1.385061	0.000889
43	207778	1.392122	0.000882
43	208383	1.398886	0.000882
43	209097	1.405603	0.000882
43	209730	1.41232	0.000882
43	210320	1.419037	0.000882
43	211142	1.426119	0.000882
43	211634	1.432883	0.000882
43	212231	1.4396	0.000882
43	212828	1.446317	0.000882
43	213339	1.453034	0.000882
43	213847	1.460116	0.000882
43	214312	1.46688	0.000882
43	214909	1.473597	0.000882
43	215506	1.480314	0.000882
43	216096	1.487031	0.000882
43	216631	1.494113	0.000882
43	217014	1.500877	0.000882
43	217587	1.507594	0.000882
43	218184	1.514311	0.000882
43	218781	1.521028	0.000882
43	219379	1.52811	0.000882
43	219798	1.534874	0.000882
43	220285	1.541591	0.000882
43	220863	1.548308	0.000882
43	221460	1.555025	0.000882
43	222060	1.562107	0.000882
43	222552	1.568871	0.000882
43	223068	1.575588	0.000882
43	223541	1.582305	0.000882
43	224138	1.589022	0.000882
43	224754	1.597239	0.002017
43	225351	1.604268	0.000882
43	225843	1.611032	0.000882
43	226440	1.617749	0.000882
43	226948	1.624466	0.000882
43	227428	1.631183	0.000882
43	228029	1.638265	0.000882
43	228521	1.645029	0.000882
43	229118	1.651746	0.000882
43	229708	1.658463	0.000882
43	230214	1.66518	0.000882
43	230751	1.672262	0.000882
43	231226	1.679026	0.000882
43	231823	1.685743	0.000882
43	232420	1.69246	0.000882
43	233006	1.699177	0.000882
43	233557	1.706259	0.000882
43	233946	1.713023	0.000882
43	234524	1.71974	0.000882
43	235121	1.726457	0.000882
43	235718	1.733174	0.000882
43	236351	1.740256	0.000882
43	236762	1.74702	0.000882
43	237235	1.753737	0.000882
43	237832	1.760454	0.000882
43	238429	1.767171	0.000882
43	239041	1.774253	0.000882
43	239533	1.781017	0.000882
43	240037	1.787734	0.000882
43	240521	1.794451	0.000882
43	241118	1.801168	0.000882
43	241726	1.80825	0.000882
43	242218	1.815014	0.000882
43	242808	1.821731	0.000882
43	243314	1.828448	0.000882
43	243803	1.835165	0.000882
43	244404	1.842247	0.000882
43	244896	1.849011	0.000882
43	245493	1.855728	0.000882
43	246079	1.862445	0.000882
43	246564	1.869162	0.000882
43	247104	1.876244	0.000882
43	247578	1.883008	0.000882
43	248175	1.889725	0.000882
43	248772	1.896442	0.000882
43	249354	1.903159	0.000882
43	249880	1.910241	0.000882
43	250253	1.917005	0.000882
43	250850	1.923722	0.000882
43	251447	1.930439	0.000882
43	252044	1.937156	0.000882
43	252637	1.944238	0.000882
43	253043	1.951002	0.000882
43	253527	1.957719	0.000882
43	254124	1.964436	0.000882
43	254721	1.971153	0.000882
43	255326	1.978235	0.000882
43	255811	1.984999	0.000882
43	256317	1.991716	0.000882
43	256806	1.998433	0.000882
43	257403	2.00515	0.000882
43	258004	2.012232	0.000882
43	258496	2.018996	0.000882
43	259082	2.025713	0.000882
43	259567	2.03243	0.000882
43	260078	2.039147	0.000882
43	260691	2.047325	0.001978
43	261295	2.054393	0.000882
43	261896	2.061157	0.000882
43	262372	2.067874	0.000882
43	262848	2.074591	0.000882
43	263301	2.081308	0.000882
43	263696	2.08839	0.000882
43	264067	2.095154	0.000882
43	264543	2.101871	0.000882
43	265019	2.108588	0.000882
43	265495	2.115305	0.000882
43	265986	2.122387	0.000882
43	266271	2.129151	0.000882
43	266747	2.135868	0.000882
43	267223	2.142585	0.000882
43	267699	2.149302	0.000882
43	268198	2.156384	0.000882
43	268555	2.163148	0.000882
43	268942	2.169865	0.000882
43	269418	2.176582	0.000882
43	269894	2.183299	0.000882
43	270408	2.190381	0.000882
43	270782	2.197145	0.000882
43	271239	2.203862	0.000882
43	271629	2.210579	0.000882
43	272105	2.217296	0.000882
43	272591	2.224378	0.000882
43	272965	2.231142	0.000882
43	273441	2.237859	0.000882
43	273894	2.244576	0.000882
43	274288	2.251293	0.000882
43	274771	2.258375	0.000882
43	275143	2.265139	0.000882
43	275619	2.271856	0.000882
43	276095	2.278573	0.000882
43	276528	2.28529	0.000882
43	276945	2.292372	0.000882
43	277317	2.299136	0.000882
43	277793	2.305853	0.000882
43	278269	2.31257	0.000882
43	278745	2.319287	0.000882
43	279209	2.326369	0.000882
43	279494	2.333133	0.000882
43	279970	2.33985	0.000882
43	280446	2.346567	0.000882
43	280922	2.353284	0.000882
43	281402	2.360366	0.000882
43	281753	2.36713	0.000882
43	282144	2.373847	0.000882
43	282620	2.380564	0.000882
43	283096	2.387281	0.000882
43	283573	2.394363	0.000882
43	283947	2.401127	0.000882
43	284400	2.407844	0.000882
43	284794	2.414561	0.000882
43	285270	2.421278	0.000882
43	285750	2.42836	0.000882
43	286122	2.435124	0.000882
43	286598	2.441841	0.000882
43	287031	2.448558	0.000882
43	287448	2.455275	0.000882
43	287924	2.462357	0.000882
43	288295	2.469121	0.000882
43	288771	2.475838	0.000882
44	3644	0.008541	0.007282
44	5542	0.016371	0.007282
44	7533	0.024201	0.007282
44	9552	0.032031	0.007282
44	11511	0.039861	0.007282
44	13307	0.047691	0.007282
44	15160	0.055739	0.0075
44	16959	0.064016	0.007729
44	18858	0.072227	0.007663
44	20600	0.080391	0.007616
44	22448	0.088556	0.007617
44	24087	0.09672	0.007616
44	25658	0.104884	0.007616
44	27220	0.113048	0.007616
44	28773	0.121212	0.007616
44	30371	0.129376	0.007616
44	32012	0.13754	0.007616
44	33727	0.145704	0.007616
44	35278	0.153868	0.007616
44	36885	0.162059	0.007643
44	38548	0.170223	0.007616
44	40137	0.178387	0.007616
44	41796	0.186551	0.007616
44	43738	0.195982	0.008883
44	45366	0.204193	0.007663
44	46974	0.212357	0.007616
44	48585	0.220521	0.007616
44	50517	0.229979	0.00891
44	52146	0.238205	0.007678
44	53751	0.246369	0.007616
44	55320	0.254533	0.007616
44	57057	0.263976	0.008895
44	58809	0.272187	0.007663
44	60365	0.280367	0.007632
44	61934	0.288531	0.007616
44	63699	0.297973	0.008894
44	65598	0.306184	0.007663
44	67299	0.314348	0.007616
44	68856	0.322512	0.007616
44	70653	0.33197	0.00891
44	72329	0.340181	0.007663
44	73906	0.348345	0.007616
44	75457	0.356509	0.007616
44	77155	0.365967	0.00891
44	78814	0.374178	0.007663
44	80381	0.382342	0.007616
44	81915	0.390506	0.007616
44	83638	0.399964	0.00891
44	85481	0.408175	0.007663
44	86996	0.416339	0.007616
44	88520	0.424503	0.007616
44	90076	0.433961	0.00891
44	91636	0.442172	0.007663
44	93137	0.450336	0.007616
44	94539	0.4585	0.007616
44	96122	0.467958	0.00891
44	97649	0.476169	0.007663
44	99188	0.484333	0.007616
44	100540	0.492497	0.007616
44	102130	0.501955	0.00891
44	103393	0.510166	0.007663
44	104700	0.51833	0.007616
44	105911	0.526494	0.007616
44	107279	0.535952	0.00891
44	108575	0.544163	0.007663
44	109826	0.552327	0.007616
44	111081	0.560491	0.007616
44	112438	0.569949	0.00891
44	113743	0.57816	0.007663
44	115097	0.586324	0.007616
44	116347	0.594488	0.007616
44	117713	0.603946	0.00891
44	119029	0.612157	0.007663
44	120345	0.620321	0.007616
44	121700	0.628485	0.007616
44	122787	0.636692	0.007659
44	123938	0.644856	0.007616
44	125078	0.65302	0.007616
44	126224	0.661184	0.007616
44	127312	0.669348	0.007616
44	128394	0.677512	0.007616
44	129638	0.685676	0.007616
44	130774	0.69384	0.007616
44	131928	0.702004	0.007616
44	132896	0.710168	0.007616
44	133952	0.718332	0.007616
44	134999	0.726496	0.007616
44	135998	0.73466	0.007616
44	137029	0.742824	0.007616
44	138024	0.750988	0.007616
44	139094	0.759152	0.007616
44	140115	0.767316	0.007616
44	141085	0.77548	0.007616
44	142073	0.783644	0.007616
44	143063	0.791808	0.007616
45	3686	0.00859	0.007129
45	5732	0.017048	0.007576
45	7814	0.025412	0.007482
45	9652	0.032429	0.006135
45	11616	0.040379	0.007068
45	13569	0.048822	0.007561
45	15419	0.056819	0.007061
45	17197	0.064816	0.007115
45	19011	0.072813	0.007115
45	20718	0.08081	0.007115
45	22512	0.088807	0.007115
45	24123	0.096843	0.007154
45	25634	0.10484	0.007115
45	27156	0.112837	0.007115
45	28658	0.120834	0.007115
45	30154	0.128831	0.007115
45	31801	0.136828	0.007115
45	33467	0.144825	0.007115
45	34956	0.152822	0.007115
45	36455	0.160819	0.007115
45	38097	0.168816	0.007115
45	39474	0.175533	0.005835
45	40899	0.182283	0.005868
45	42293	0.189	0.005835
45	43650	0.195717	0.005835
45	44899	0.202746	0.006147
45	46255	0.209516	0.005888
45	47725	0.21628	0.005882
45	49108	0.222997	0.005835
45	50405	0.229714	0.005835
45	51758	0.236743	0.006147
45	53111	0.243513	0.005888
45	54474	0.250277	0.005882
45	55835	0.256994	0.005835
45	56953	0.263711	0.005835
45	58380	0.27074	0.006147
45	59704	0.27751	0.005888
[...]
92	151806	0.868	0.007282
92	152670	0.876164	0.007282
92	153646	0.885622	0.008576
92	154608	0.893833	0.007329
92	155566	0.901997	0.007282
92	156430	0.910161	0.007282
92	157405	0.919619	0.008576
92	158398	0.92783	0.007329
92	159328	0.935994	0.007282
92	160192	0.944158	0.007282
92	161189	0.953616	0.008576
92	162165	0.961827	0.007329
92	163084	0.969991	0.007282
92	163948	0.978155	0.007282
92	165060	0.987613	0.008576
92	166013	0.995824	0.007329
92	166932	1.003988	0.007282
92	167796	1.012152	0.007282
92	168872	1.02161	0.008576
92	169791	1.029821	0.007329
92	170710	1.037985	0.007282
92	171574	1.046149	0.007282
92	172640	1.055607	0.008576
92	173550	1.063818	0.007329
92	174469	1.071982	0.007282
92	175333	1.080146	0.007282
92	176406	1.089604	0.008576
92	177309	1.097815	0.007329
92	178228	1.105979	0.007282
92	179092	1.114143	0.007282
92	180162	1.123601	0.008576
92	181066	1.131812	0.007329
92	181985	1.139976	0.007282
92	182845	1.14814	0.007282
92	183924	1.157598	0.008576
92	184783	1.165809	0.007329
92	185685	1.173973	0.007282
92	186638	1.182137	0.007282
92	187766	1.191595	0.008576
92	188632	1.199854	0.007377
92	189537	1.208018	0.007282
92	190514	1.216182	0.007282
92	191559	1.22564	0.008576
92	192409	1.233851	0.007295
92	193190	1.242015	0.007282
92	194072	1.250179	0.007282
92	194930	1.259637	0.008576
92	195672	1.267848	0.007329
92	196476	1.276012	0.007282
92	197342	1.284176	0.007282
92	198186	1.293634	0.008576
92	198928	1.301845	0.007329
92	199755	1.310009	0.007282
92	200598	1.318173	0.007282
92	201444	1.327631	0.008576
92	202186	1.335842	0.007329
92	203049	1.344006	0.007282
92	203860	1.35217	0.007282
92	204704	1.361628	0.008576
92	205446	1.369839	0.007329
92	206320	1.378003	0.007282
92	207119	1.386167	0.007282
92	208051	1.395625	0.008576
92	208829	1.403836	0.007329
92	209672	1.412	0.007282
92	210464	1.420164	0.007282
92	211295	1.428328	0.007282
92	211908	1.436492	0.007282
92	212606	1.444656	0.007282
92	213288	1.45282	0.007282
92	213938	1.460984	0.007282
92	214547	1.469148	0.007282
92	215184	1.477312	0.007282
92	215886	1.485476	0.007282
92	216553	1.49364	0.007282
92	217166	1.501804	0.007282
92	217779	1.509968	0.007282
92	218436	1.518132	0.007282
92	219110	1.526296	0.007282
92	219727	1.53446	0.007282
92	220402	1.542624	0.007282
92	221019	1.550788	0.007282
92	221718	1.558952	0.007282
92	222354	1.567116	0.007282
92	223010	1.57528	0.007282
92	223681	1.583444	0.007282
92	224317	1.591608	0.007282
92	225008	1.599772	0.007282
92	225625	1.607936	0.007282
92	226238	1.6161	0.007282
92	226903	1.624264	0.007282
92	227615	1.632428	0.007282
92	228283	1.640592	0.007282
92	228896	1.648756	0.007282
92	229513	1.65692	0.007282
92	230189	1.665084	0.007282
92	230914	1.673248	0.007282
92	231538	1.681412	0.007282
92	232175	1.689576	0.007282
92	232784	1.69774	0.007282
92	233473	1.705904	0.007282
92	234158	1.714068	0.007282
92	234772	1.722232	0.007282
92	235389	1.730396	0.007282
92	236006	1.73856	0.007282
92	236670	1.746724	0.007282
92	237390	1.754888	0.007282
92	238007	1.763052	0.007282
92	238624	1.771216	0.007282
92	239241	1.77938	0.007282
92	239992	1.787544	0.007282
92	240669	1.795708	0.007282
92	241286	1.803872	0.007282
92	241903	1.812036	0.007282
92	242547	1.8202	0.007282
92	243289	1.828364	0.007282
92	243944	1.836528	0.007282
92	244561	1.844692	0.007282
92	245174	1.852856	0.007282
92	245850	1.86102	0.007282
92	246586	1.869184	0.007282
92	247203	1.877348	0.007282
92	247812	1.885512	0.007282
92	248449	1.893676	0.007282
92	249151	1.90184	0.007282
92	249832	1.910004	0.007282
92	250441	1.918168	0.007282
92	251058	1.926332	0.007282
92	251710	1.934496	0.007282
92	252389	1.94266	0.007282
92	253002	1.950824	0.007282
92	253668	1.958988	0.007282
92	254285	1.967152	0.007282
92	254983	1.975316	0.007282
92	255617	1.98348	0.007282
92	256289	1.991644	0.007282
92	256944	1.999808	0.007282
92	257561	2.007972	0.007282
92	258271	2.016136	0.007282
92	258891	2.0243	0.007282
92	259589	2.032464	0.007282
92	260223	2.040628	0.007282
92	260875	2.048792	0.007282
92	261549	2.056956	0.007282
93	8788	0.029202	0.000882
93	17961	0.068234	0.000882
93	25601	0.104666	0.000882
93	32490	0.139806	0.00089
93	38683	0.170842	0.000882
93	44087	0.197751	0.000882
93	48866	0.221731	0.000882
93	53208	0.244223	0.000882
93	57447	0.265274	0.000882
93	61189	0.284978	0.000882
93	64896	0.303228	0.000916
93	67582	0.31621	0.000882
93	70328	0.330197	0.000882
93	72789	0.34279	0.000882
93	75188	0.355383	0.000882
93	77592	0.367929	0.000882
93	79895	0.380475	0.000882
93	82292	0.393021	0.000882
93	84776	0.405567	0.000882
93	87084	0.41686	0.000882
93	88824	0.426712	0.000882
93	90621	0.43647	0.000882
93	92068	0.444881	0.000882
93	93713	0.454639	0.000882
93	95486	0.46435	0.000882
93	96938	0.472761	0.000882
93	98822	0.482519	0.000882
93	100481	0.492071	0.000882
93	101804	0.500282	0.000882
93	103333	0.50974	0.000882
93	104871	0.519274	0.000882
93	106080	0.527485	0.000882
93	107505	0.536943	0.000882
93	108985	0.546477	0.000882
93	110200	0.554688	0.000882
93	111617	0.564146	0.000882
93	113069	0.57368	0.000882
93	114290	0.581891	0.000882
93	115707	0.591349	0.000882
93	117248	0.600883	0.000882
93	118464	0.609094	0.000882
93	119988	0.618552	0.000882
93	121636	0.628086	0.000882
93	122736	0.636297	0.000882
93	124142	0.645755	0.000882
93	125488	0.655289	0.000882
93	126573	0.6635	0.000882
93	127888	0.672958	0.000882
93	129212	0.682492	0.000882
93	130302	0.690703	0.000882
93	131525	0.698867	0.000882
93	132549	0.707031	0.000882
93	133645	0.716489	0.000882
93	134709	0.7247	0.000882
93	135762	0.732864	0.000882
93	136752	0.741028	0.000882
93	137929	0.750486	0.000882
93	139017	0.758727	0.000882
93	140061	0.766891	0.000882
93	141036	0.775055	0.000882
93	142214	0.784513	0.000882
93	143320	0.792724	0.000882
93	144361	0.800888	0.000882
93	145227	0.809052	0.000882
93	146207	0.81851	0.000882
93	147246	0.826721	0.000882
93	148123	0.834885	0.000882
93	148989	0.843049	0.000882
93	149966	0.852507	0.000882
93	151016	0.860718	0.000882
93	151882	0.868882	0.000882
93	152748	0.877046	0.000882
93	153756	0.886504	0.000882
93	154783	0.894715	0.000882
93	155641	0.902879	0.000882
93	156507	0.911043	0.000882
93	157536	0.920501	0.000882
93	158542	0.928712	0.000882
93	159400	0.936876	0.000882
93	160266	0.94504	0.000882
93	161392	0.954498	0.000882
93	162364	0.962709	0.000882
93	163222	0.970873	0.000882
93	164088	0.979037	0.000882
93	165208	0.988495	0.000882
93	166165	0.996706	0.000882
93	167023	1.00487	0.000882
93	167889	1.013034	0.000882
93	168967	1.022492	0.000882
93	169924	1.030703	0.000882
93	170782	1.038867	0.000882
93	171648	1.047031	0.000882
93	172727	1.056489	0.000882
93	173684	1.0647	0.000882
93	174542	1.072864	0.000882
93	175408	1.081028	0.000882
93	176489	1.090486	0.000882
93	177446	1.098697	0.000882
93	178304	1.106861	0.000882
93	179205	1.115025	0.000882
93	180248	1.124483	0.000882
93	181205	1.132694	0.000882
93	182063	1.140858	0.000882
93	182984	1.149022	0.000882
93	184054	1.15848	0.000882
93	184918	1.166691	0.000882
93	185862	1.174855	0.000882
93	186825	1.183019	0.000882
93	187870	1.192477	0.000882
93	188752	1.200736	0.000882
93	189702	1.2089	0.000882
93	190645	1.217064	0.000882
93	191704	1.226556	0.000916
93	192502	1.234733	0.000882
93	193360	1.242897	0.000882
93	194153	1.251061	0.000882
93	195002	1.260519	0.000882
93	195761	1.26873	0.000882
93	196656	1.276894	0.000882
93	197416	1.285058	0.000882
93	198262	1.294516	0.000882
93	199042	1.302727	0.000882
93	199931	1.310891	0.000882
93	200675	1.319055	0.000882
93	201524	1.328513	0.000882
93	202322	1.336724	0.000882
93	203190	1.344888	0.000882
93	203934	1.353052	0.000882
93	204830	1.36251	0.000882
93	205628	1.370721	0.000882
93	206498	1.378885	0.000882
93	207242	1.387049	0.000882
93	208142	1.396507	0.000882
93	208971	1.404718	0.000882
93	209813	1.412882	0.000882
93	210557	1.421046	0.000882
93	211388	1.42921	0.000882
93	212033	1.437374	0.000882
93	212734	1.445538	0.000882
93	213418	1.453702	0.000882
93	214035	1.461866	0.000882
93	214647	1.47003	0.000882
93	215335	1.478194	0.000882
93	216015	1.486358	0.000882
93	216689	1.494522	0.000882
93	217298	1.502686	0.000882
93	217920	1.51085	0.000882
93	218630	1.519014	0.000882
93	219251	1.527178	0.000882
93	219888	1.535342	0.000882
93	220492	1.543506	0.000882
93	221148	1.55167	0.000882
93	221823	1.559834	0.000882
93	222457	1.567998	0.000882
93	223146	1.576162	0.000882
93	223770	1.584326	0.000882
93	224469	1.59249	0.000882
93	225101	1.600654	0.000882
93	225718	1.608818	0.000882
93	226351	1.616982	0.000882
93	227063	1.625146	0.000882
93	227759	1.63331	0.000882
93	228376	1.641474	0.000882
93	228989	1.649638	0.000882
93	229633	1.657802	0.000882
93	230356	1.665966	0.000882
93	231027	1.67413	0.000882
93	231636	1.682294	0.000882
93	232264	1.690458	0.000882
93	232912	1.698622	0.000882
93	233665	1.706786	0.000882
93	234289	1.71495	0.000882
93	234915	1.723114	0.000882
93	235532	1.731278	0.000882
93	236191	1.739442	0.000882
93	236879	1.747606	0.000882
93	237502	1.75577	0.000882
93	238119	1.763934	0.000882
93	238736	1.772098	0.000882
93	239398	1.780262	0.000882
93	240141	1.788426	0.000882
93	240758	1.79659	0.000882
93	241375	1.804754	0.000882
93	241992	1.812918	0.000882
93	242721	1.821082	0.000882
93	243420	1.829246	0.000882
93	244037	1.83741	0.000882
93	244654	1.845574	0.000882
93	245294	1.853738	0.000882
93	246012	1.861902	0.000882
93	246695	1.870066	0.000882
93	247312	1.87823	0.000882
93	247918	1.886394	0.000882
93	248600	1.894558	0.000882
93	249294	1.902722	0.000882
93	249954	1.910886	0.000882
93	250563	1.91905	0.000882
93	251193	1.927214	0.000882
93	251899	1.935378	0.000882
93	252551	1.943542	0.000882
93	253171	1.951706	0.000882
93	253784	1.95987	0.000882
93	254433	1.968034	0.000882
93	255115	1.976198	0.000882
93	255732	1.984362	0.000882
93	256419	1.992526	0.000882
93	257036	2.00069	0.000882
93	257712	2.008854	0.000882
93	258368	2.017018	0.000882
93	259013	2.025182	0.000882
93	259695	2.033346	0.000882
93	260312	2.04151	0.000882
93	261017	2.049674	0.000882
93	261642	2.057838	0.000882
94	8985	0.029714	0.027439
94	18404	0.070093	0.039497
94	26041	0.106619	0.035644
94	32763	0.141798	0.034297
94	38966	0.172795	0.030115
94	44269	0.19961	0.025933
94	49214	0.223637	0.023145
94	53644	0.246129	0.02161
94	57713	0.26718	0.020135
94	61540	0.286884	0.018788
94	65324	0.305288	0.017522
94	68167	0.319463	0.013293
95	9246	0.030596	0.000882
95	18558	0.070975	0.000882
95	26153	0.107501	0.000882
95	32960	0.14268	0.000882
95	39038	0.173677	0.000882
95	44412	0.200492	0.000882
95	49361	0.224519	0.000882
95	53955	0.247045	0.000916
95	57927	0.268096	0.000916
95	61743	0.287766	0.000882
95	65575	0.30617	0.000882
95	68374	0.320345	0.000882
96	9351	0.031061	0.028684
96	18103	0.068699	0.036756
96	25065	0.102437	0.032856
96	31351	0.134734	0.031415
96	37231	0.16429	0.028674
96	42439	0.189758	0.024586
96	47271	0.213691	0.023051
96	51351	0.23493	0.020343
96	55027	0.25324	0.017428
96	58279	0.270156	0.016034
96	61879	0.288278	0.01724
96	65037	0.303941	0.014781
96	67659	0.316675	0.011852
96	69928	0.327968	0.010411
96	71764	0.337773	0.008923
96	73759	0.347578	0.008923
96	75610	0.357289	0.008829
96	77698	0.368441	0.01027
96	79451	0.378246	0.008923
96	81342	0.387957	0.008829
96	83182	0.397762	0.008923
96	84898	0.406173	0.007529
96	86631	0.414631	0.007576
97	9528	0.031943	0.000882
97	18335	0.069581	0.000882
97	25171	0.103319	0.000882
97	31462	0.135616	0.000882
97	37368	0.165172	0.000882
97	42578	0.19064	0.000882
97	47443	0.214587	0.000896
97	51544	0.235812	0.000882
97	55235	0.254122	0.000882
97	58495	0.271038	0.000882
97	62057	0.28916	0.000882
97	65218	0.304823	0.000882
97	67813	0.317557	0.000882
97	70073	0.32885	0.000882
97	71894	0.338655	0.000882
97	73936	0.34846	0.000882
97	75716	0.358171	0.000882
97	77853	0.369323	0.000882
97	79630	0.379128	0.000882
97	81520	0.388839	0.000882
97	83353	0.398644	0.000882
97	85107	0.407055	0.000882
97	86813	0.415513	0.000882
98	9677	0.032455	0.030129
98	19040	0.072834	0.039664
98	26426	0.109454	0.035905
99	9847	0.03317	0.000715
99	19210	0.073549	0.000715
99	26554	0.110169	0.000715
100	9984	0.033849	0.03137
100	18662	0.071487	0.036756
100	25768	0.105272	0.032903
100	32046	0.137569	0.031415
101	10283	0.034731	0.000882
101	18890	0.072369	0.000882
101	25970	0.106154	0.000882
101	32238	0.138451	0.000882
102	10431	0.03529	0.032862
102	19545	0.075622	0.03945
102	26981	0.112242	0.035738
102	33837	0.146027	0.032903
102	39769	0.177024	0.030115
102	45260	0.203839	0.025933
102	49865	0.227772	0.023051
103	10724	0.036172	0.000882
103	19759	0.076504	0.000882
103	27249	0.113124	0.000882
103	33996	0.146909	0.000882
103	40027	0.177906	0.000882
103	45457	0.204721	0.000882
103	50064	0.228654	0.000882
104	10841	0.036684	0.034103
104	19297	0.074275	0.036709
104	26201	0.10806	0.032903
104	32576	0.140451	0.031509
104	38055	0.168613	0.02728
104	43120	0.19394	0.024445
104	47795	0.21662	0.021798
104	51675	0.236371	0.018808
104	55593	0.255981	0.018728
104	58956	0.27285	0.015987
104	62127	0.289672	0.01594
105	11018	0.037566	0.000882
105	19461	0.075157	0.000882
105	26351	0.108942	0.000882
105	32663	0.141333	0.000882
105	38299	0.169495	0.000882
105	43406	0.194822	0.000882
105	47922	0.217563	0.000943
105	51891	0.237253	0.000882
105	55796	0.256863	0.000882
105	59099	0.273732	0.000882
105	62259	0.290554	0.000882
106	11124	0.038031	0.035501
106	20228	0.078551	0.039638
106	27613	0.11503	0.035597
107	11312	0.038913	0.000882
107	20345	0.079433	0.000882
107	27706	0.115912	0.000882
108	11425	0.039425	0.036742
108	19916	0.077157	0.037017
108	26663	0.110848	0.032976
108	33056	0.143192	0.031629
108	38776	0.171401	0.027494
108	43556	0.195475	0.023359
109	11569	0.04014	0.000715
109	20106	0.077872	0.000715
109	26790	0.111563	0.000715
109	33221	0.143907	0.000715
109	38867	0.172116	0.000715
109	43793	0.19619	0.000715
110	11748	0.040772	0.03814
111	11931	0.041654	0.000882
112	12016	0.042213	0.039428
112	20482	0.079898	0.036803
112	27389	0.113636	0.032856
112	33404	0.144633	0.030115
112	39110	0.174142	0.028627
112	44130	0.198263	0.023231
112	48348	0.219455	0.02031
112	52366	0.239159	0.018822
112	55918	0.257422	0.017381
112	59370	0.275638	0.017334
113	12232	0.043095	0.000882
113	20693	0.08078	0.000882
113	27557	0.114518	0.000882
113	33677	0.145515	0.000882
113	39387	0.175032	0.00089
113	44216	0.199145	0.000882
113	48552	0.220337	0.000882
113	52487	0.240041	0.000882
113	56057	0.258304	0.000882
113	59522	0.27652	0.000882
114	12399	0.043607	0.040873
114	21106	0.082686	0.038197
114	28223	0.119212	0.035644
114	34707	0.15165	0.031556
114	40662	0.181253	0.028721
114	45874	0.208021	0.025886
114	50758	0.230748	0.021845
114	54768	0.251846	0.020216
114	58640	0.271503	0.018775
114	62348	0.291066	0.018681
115	12639	0.044489	0.000882
115	21341	0.083568	0.000882
115	28427	0.120094	0.000882
115	34881	0.152532	0.000882
115	40845	0.182135	0.000882
115	46073	0.208903	0.000882
115	50902	0.23163	0.000882
115	54907	0.252728	0.000882
115	58858	0.272385	0.000882
115	62683	0.291982	0.000916
116	12735	0.045001	0.042114
116	20851	0.081339	0.035456
116	27768	0.116424	0.034203
116	34066	0.147468	0.030162
116	39513	0.175677	0.026648
116	44513	0.201051	0.024492
116	48988	0.22229	0.020357
116	52738	0.241994	0.018822
116	56321	0.26021	0.017334
116	59614	0.277126	0.016034
116	62970	0.293948	0.01594
116	65753	0.306776	0.011946
116	67876	0.318069	0.010411
116	70421	0.330756	0.011805
116	72444	0.340561	0.008923
116	74206	0.350319	0.008876
116	76121	0.360124	0.008923
116	77906	0.369882	0.008876
116	80046	0.380987	0.010223
116	81987	0.390792	0.008923
116	83754	0.400503	0.008829
116	85673	0.409008	0.007623
116	87183	0.417419	0.007526
116	88499	0.424483	0.006182
116	89680	0.431453	0.006088
116	90896	0.43847	0.006135
116	92116	0.44544	0.006088
116	93411	0.45241	0.006088
116	94672	0.459333	0.006041
116	95804	0.46635	0.006135
116	97058	0.47332	0.006088
116	98253	0.48029	0.006088
116	99513	0.487007	0.005835
116	100794	0.49403	0.006141
116	101878	0.500784	0.005835
116	102872	0.507511	0.005845
116	103848	0.514228	0.005835
116	105004	0.520945	0.005835
116	106151	0.52795	0.006123
116	107043	0.534714	0.005882
116	108033	0.541431	0.005835
116	109112	0.548148	0.005835
116	110256	0.555153	0.006123
116	111321	0.561917	0.005882
116	112209	0.568634	0.005835
116	113294	0.575351	0.005835
116	114373	0.582356	0.006123
116	115426	0.58912	0.005882
116	116484	0.595837	0.005835
116	117453	0.602554	0.005835
116	118560	0.609559	0.006123
116	119539	0.616323	0.005882
116	120593	0.62304	0.005835
116	121858	0.629757	0.005835
116	122813	0.636762	0.006123
116	123632	0.643526	0.005882
116	124538	0.650243	0.005835
116	125592	0.65696	0.005835
116	126633	0.663965	0.006123
116	127557	0.670729	0.005882
116	128370	0.677446	0.005835
116	129304	0.684163	0.005835
116	130352	0.691168	0.006123
117	12830	0.045883	0.000882
117	21008	0.082221	0.000882
117	27913	0.117306	0.000882
117	34261	0.149029	0.001561
117	39655	0.176559	0.000882
117	44678	0.201933	0.000882
117	49145	0.223172	0.000882
117	52938	0.242876	0.000882
117	56454	0.261092	0.000882
117	59809	0.278008	0.000882
117	63129	0.29483	0.000882
117	65870	0.307658	0.000882
117	68024	0.318951	0.000882
117	70562	0.331638	0.000882
117	72594	0.341443	0.000882
117	74346	0.351201	0.000882
117	76284	0.361006	0.000882
117	78049	0.370764	0.000882
117	80296	0.381869	0.000882
117	82122	0.391674	0.000882
117	83964	0.401385	0.000882
117	85799	0.409893	0.000885
117	87275	0.418301	0.000882
117	88651	0.425365	0.000882
117	89774	0.432335	0.000882
117	91085	0.439352	0.000882
117	92256	0.446322	0.000882
117	93496	0.453292	0.000882
117	94779	0.460215	0.000882
117	95943	0.467232	0.000882
117	97181	0.474202	0.000882
117	98418	0.481172	0.000882
117	99583	0.487889	0.000882
117	100961	0.494949	0.000919
117	102053	0.501666	0.000882
117	103004	0.508393	0.000882
117	103977	0.51511	0.000882
117	105077	0.521827	0.000882
117	106253	0.528832	0.000882
117	107184	0.535596	0.000882
117	108166	0.542313	0.000882
117	109248	0.54903	0.000882
117	110342	0.556035	0.000882
117	111400	0.562799	0.000882
117	112343	0.569516	0.000882
117	113432	0.576233	0.000882
117	114517	0.583238	0.000882
117	115493	0.590002	0.000882
117	116562	0.596719	0.000882
117	117586	0.603436	0.000882
117	118730	0.610441	0.000882
117	119668	0.617205	0.000882
117	120659	0.623922	0.000882
117	121942	0.630639	0.000882
117	122967	0.637644	0.000882
117	123842	0.644408	0.000882
117	124626	0.651125	0.000882
117	125687	0.657842	0.000882
117	126757	0.664847	0.000882
117	127680	0.671611	0.000882
117	128611	0.678328	0.000882
117	129478	0.685045	0.000882
117	130490	0.69205	0.000882
118	12991	0.046348	0.043512
118	21781	0.085568	0.038505
118	28996	0.122047	0.035764
118	35413	0.154391	0.031629
118	41205	0.184088	0.028982
118	46215	0.209462	0.024659
118	51121	0.233489	0.023312
118	55354	0.254587	0.020383
118	59175	0.274244	0.018942
118	62815	0.292601	0.017642
118	65939	0.308123	0.014807
118	68801	0.322251	0.013413
118	71307	0.334938	0.011972
118	73352	0.346184	0.010531
118	75769	0.358636	0.011737
118	78154	0.371229	0.011878
118	80630	0.383775	0.011831
118	82936	0.396321	0.011831
118	85263	0.40752	0.010484
118	87341	0.418766	0.010531
118	89160	0.428618	0.009137
118	90674	0.437076	0.007743
118	92360	0.446787	0.008996
118	94196	0.456545	0.009043
118	95602	0.464956	0.007696
118	97283	0.474667	0.008996
118	99225	0.484472	0.00909
118	100576	0.492683	0.007496
119	13169	0.047063	0.000715
119	21919	0.086283	0.000715
119	29091	0.122762	0.000715
119	35529	0.155106	0.000715
119	41321	0.184803	0.000715
119	46362	0.210177	0.000715
119	51244	0.234204	0.000715
119	55482	0.255302	0.000715
119	59310	0.274959	0.000715
119	62878	0.293316	0.000715
119	66066	0.308838	0.000715
119	68952	0.322966	0.000715
119	71411	0.335653	0.000715
119	73551	0.346899	0.000715
119	75955	0.359351	0.000715
119	78283	0.371944	0.000715
119	80717	0.38449	0.000715
119	83064	0.397036	0.000715
119	85518	0.408235	0.000715
119	87416	0.419481	0.000715
119	89284	0.429333	0.000715
119	90752	0.437791	0.000715
119	92534	0.447502	0.000715
119	94315	0.45726	0.000715
119	95739	0.465671	0.000715
119	97456	0.475382	0.000715
119	99382	0.485187	0.000715
119	100707	0.493398	0.000715

