version 2
run General-0-20220427-22:18:23-22474
attr configname General
attr datetime 20220427-22:18:23
attr experiment General
attr inifile Jellyfish_24_4_3_4_n32__jelly_extra_core_routers_seed9.ini
attr iterationvars ""
attr iterationvarsf ""
attr measurement ""
attr network Jellyfish_24_4_3_4_n32__jelly_extra_core_routers_seed9
attr processid 22474
attr repetition 0
attr replication #0
attr resultdir results
attr runnumber 0
attr seedset 0
param **.ppp[*].ppp.queue.typename "\"DropTailQueue\""
param **.ppp[*].ppp.queue.packetCapacity 100
param *.configurator.config "xmldoc(\"Jellyfish_24_4_3_4_n32__jelly_extra_core_routers_seed9.xml\")"
param **.sink_000.numApps 1
param **.sink_000.app[0].typename "\"TcpGenericServerApp\""
param **.sink_000.app[0].localAddress "\"\""
param **.sink_000.app[0].localPort 1100
param **.sink_000.app[0].replyDelay 0s
param **.sink_001.numApps 1
param **.sink_001.app[0].typename "\"TcpGenericServerApp\""
param **.sink_001.app[0].localAddress "\"\""
param **.sink_001.app[0].localPort 1100
param **.sink_001.app[0].replyDelay 0s
param **.sink_002.numApps 1
param **.sink_002.app[0].typename "\"TcpGenericServerApp\""
param **.sink_002.app[0].localAddress "\"\""
param **.sink_002.app[0].localPort 1100
param **.sink_002.app[0].replyDelay 0s
param **.sink_003.numApps 1
param **.sink_003.app[0].typename "\"TcpGenericServerApp\""
param **.sink_003.app[0].localAddress "\"\""
param **.sink_003.app[0].localPort 1100
param **.sink_003.app[0].replyDelay 0s
param **.sink_004.numApps 1
param **.sink_004.app[0].typename "\"TcpGenericServerApp\""
param **.sink_004.app[0].localAddress "\"\""
param **.sink_004.app[0].localPort 1100
param **.sink_004.app[0].replyDelay 0s
param **.sink_005.numApps 1
param **.sink_005.app[0].typename "\"TcpGenericServerApp\""
param **.sink_005.app[0].localAddress "\"\""
param **.sink_005.app[0].localPort 1100
param **.sink_005.app[0].replyDelay 0s
param **.sink_006.numApps 1
param **.sink_006.app[0].typename "\"TcpGenericServerApp\""
param **.sink_006.app[0].localAddress "\"\""
param **.sink_006.app[0].localPort 1100
param **.sink_006.app[0].replyDelay 0s
param **.sink_007.numApps 1
param **.sink_007.app[0].typename "\"TcpGenericServerApp\""
param **.sink_007.app[0].localAddress "\"\""
param **.sink_007.app[0].localPort 1100
param **.sink_007.app[0].replyDelay 0s
param **.sink_008.numApps 1
param **.sink_008.app[0].typename "\"TcpGenericServerApp\""
param **.sink_008.app[0].localAddress "\"\""
param **.sink_008.app[0].localPort 1100
param **.sink_008.app[0].replyDelay 0s
param **.sink_009.numApps 1
param **.sink_009.app[0].typename "\"TcpGenericServerApp\""
param **.sink_009.app[0].localAddress "\"\""
param **.sink_009.app[0].localPort 1100
param **.sink_009.app[0].replyDelay 0s
param **.sink_010.numApps 1
param **.sink_010.app[0].typename "\"TcpGenericServerApp\""
param **.sink_010.app[0].localAddress "\"\""
param **.sink_010.app[0].localPort 1100
param **.sink_010.app[0].replyDelay 0s
param **.sink_011.numApps 1
param **.sink_011.app[0].typename "\"TcpGenericServerApp\""
param **.sink_011.app[0].localAddress "\"\""
param **.sink_011.app[0].localPort 1100
param **.sink_011.app[0].replyDelay 0s
param **.sink_012.numApps 1
param **.sink_012.app[0].typename "\"TcpGenericServerApp\""
param **.sink_012.app[0].localAddress "\"\""
param **.sink_012.app[0].localPort 1100
param **.sink_012.app[0].replyDelay 0s
param **.sink_013.numApps 1
param **.sink_013.app[0].typename "\"TcpGenericServerApp\""
param **.sink_013.app[0].localAddress "\"\""
param **.sink_013.app[0].localPort 1100
param **.sink_013.app[0].replyDelay 0s
param **.sink_014.numApps 1
param **.sink_014.app[0].typename "\"TcpGenericServerApp\""
param **.sink_014.app[0].localAddress "\"\""
param **.sink_014.app[0].localPort 1100
param **.sink_014.app[0].replyDelay 0s
param **.sink_015.numApps 1
param **.sink_015.app[0].typename "\"TcpGenericServerApp\""
param **.sink_015.app[0].localAddress "\"\""
param **.sink_015.app[0].localPort 1100
param **.sink_015.app[0].replyDelay 0s
param **.sink_016.numApps 1
param **.sink_016.app[0].typename "\"TcpGenericServerApp\""
param **.sink_016.app[0].localAddress "\"\""
param **.sink_016.app[0].localPort 1100
param **.sink_016.app[0].replyDelay 0s
param **.sink_017.numApps 1
param **.sink_017.app[0].typename "\"TcpGenericServerApp\""
param **.sink_017.app[0].localAddress "\"\""
param **.sink_017.app[0].localPort 1100
param **.sink_017.app[0].replyDelay 0s
param **.sink_018.numApps 1
param **.sink_018.app[0].typename "\"TcpGenericServerApp\""
param **.sink_018.app[0].localAddress "\"\""
param **.sink_018.app[0].localPort 1100
param **.sink_018.app[0].replyDelay 0s
param **.sink_019.numApps 1
param **.sink_019.app[0].typename "\"TcpGenericServerApp\""
param **.sink_019.app[0].localAddress "\"\""
param **.sink_019.app[0].localPort 1100
param **.sink_019.app[0].replyDelay 0s
param **.sink_020.numApps 1
param **.sink_020.app[0].typename "\"TcpGenericServerApp\""
param **.sink_020.app[0].localAddress "\"\""
param **.sink_020.app[0].localPort 1100
param **.sink_020.app[0].replyDelay 0s
param **.sink_021.numApps 1
param **.sink_021.app[0].typename "\"TcpGenericServerApp\""
param **.sink_021.app[0].localAddress "\"\""
param **.sink_021.app[0].localPort 1100
param **.sink_021.app[0].replyDelay 0s
param **.sink_022.numApps 1
param **.sink_022.app[0].typename "\"TcpGenericServerApp\""
param **.sink_022.app[0].localAddress "\"\""
param **.sink_022.app[0].localPort 1100
param **.sink_022.app[0].replyDelay 0s
param **.sink_023.numApps 1
param **.sink_023.app[0].typename "\"TcpGenericServerApp\""
param **.sink_023.app[0].localAddress "\"\""
param **.sink_023.app[0].localPort 1100
param **.sink_023.app[0].replyDelay 0s
param **.sink_024.numApps 1
param **.sink_024.app[0].typename "\"TcpGenericServerApp\""
param **.sink_024.app[0].localAddress "\"\""
param **.sink_024.app[0].localPort 1100
param **.sink_024.app[0].replyDelay 0s
param **.sink_025.numApps 1
param **.sink_025.app[0].typename "\"TcpGenericServerApp\""
param **.sink_025.app[0].localAddress "\"\""
param **.sink_025.app[0].localPort 1100
param **.sink_025.app[0].replyDelay 0s
param **.sink_026.numApps 1
param **.sink_026.app[0].typename "\"TcpGenericServerApp\""
param **.sink_026.app[0].localAddress "\"\""
param **.sink_026.app[0].localPort 1100
param **.sink_026.app[0].replyDelay 0s
param **.sink_027.numApps 1
param **.sink_027.app[0].typename "\"TcpGenericServerApp\""
param **.sink_027.app[0].localAddress "\"\""
param **.sink_027.app[0].localPort 1100
param **.sink_027.app[0].replyDelay 0s
param **.sink_028.numApps 1
param **.sink_028.app[0].typename "\"TcpGenericServerApp\""
param **.sink_028.app[0].localAddress "\"\""
param **.sink_028.app[0].localPort 1100
param **.sink_028.app[0].replyDelay 0s
param **.sink_029.numApps 1
param **.sink_029.app[0].typename "\"TcpGenericServerApp\""
param **.sink_029.app[0].localAddress "\"\""
param **.sink_029.app[0].localPort 1100
param **.sink_029.app[0].replyDelay 0s
param **.sink_030.numApps 1
param **.sink_030.app[0].typename "\"TcpGenericServerApp\""
param **.sink_030.app[0].localAddress "\"\""
param **.sink_030.app[0].localPort 1100
param **.sink_030.app[0].replyDelay 0s
param **.sink_031.numApps 1
param **.sink_031.app[0].typename "\"TcpGenericServerApp\""
param **.sink_031.app[0].localAddress "\"\""
param **.sink_031.app[0].localPort 1100
param **.sink_031.app[0].replyDelay 0s
param **.sink_032.numApps 1
param **.sink_032.app[0].typename "\"TcpGenericServerApp\""
param **.sink_032.app[0].localAddress "\"\""
param **.sink_032.app[0].localPort 1100
param **.sink_032.app[0].replyDelay 0s
param **.sink_033.numApps 1
param **.sink_033.app[0].typename "\"TcpGenericServerApp\""
param **.sink_033.app[0].localAddress "\"\""
param **.sink_033.app[0].localPort 1100
param **.sink_033.app[0].replyDelay 0s
param **.sink_034.numApps 1
param **.sink_034.app[0].typename "\"TcpGenericServerApp\""
param **.sink_034.app[0].localAddress "\"\""
param **.sink_034.app[0].localPort 1100
param **.sink_034.app[0].replyDelay 0s
param **.sink_035.numApps 1
param **.sink_035.app[0].typename "\"TcpGenericServerApp\""
param **.sink_035.app[0].localAddress "\"\""
param **.sink_035.app[0].localPort 1100
param **.sink_035.app[0].replyDelay 0s
param **.sink_036.numApps 1
param **.sink_036.app[0].typename "\"TcpGenericServerApp\""
param **.sink_036.app[0].localAddress "\"\""
param **.sink_036.app[0].localPort 1100
param **.sink_036.app[0].replyDelay 0s
param **.sink_037.numApps 1
param **.sink_037.app[0].typename "\"TcpGenericServerApp\""
param **.sink_037.app[0].localAddress "\"\""
param **.sink_037.app[0].localPort 1100
param **.sink_037.app[0].replyDelay 0s
param **.sink_038.numApps 1
param **.sink_038.app[0].typename "\"TcpGenericServerApp\""
param **.sink_038.app[0].localAddress "\"\""
param **.sink_038.app[0].localPort 1100
param **.sink_038.app[0].replyDelay 0s
param **.sink_039.numApps 1
param **.sink_039.app[0].typename "\"TcpGenericServerApp\""
param **.sink_039.app[0].localAddress "\"\""
param **.sink_039.app[0].localPort 1100
param **.sink_039.app[0].replyDelay 0s
param **.sink_040.numApps 1
param **.sink_040.app[0].typename "\"TcpGenericServerApp\""
param **.sink_040.app[0].localAddress "\"\""
param **.sink_040.app[0].localPort 1100
param **.sink_040.app[0].replyDelay 0s
param **.sink_041.numApps 1
param **.sink_041.app[0].typename "\"TcpGenericServerApp\""
param **.sink_041.app[0].localAddress "\"\""
param **.sink_041.app[0].localPort 1100
param **.sink_041.app[0].replyDelay 0s
param **.sink_042.numApps 1
param **.sink_042.app[0].typename "\"TcpGenericServerApp\""
param **.sink_042.app[0].localAddress "\"\""
param **.sink_042.app[0].localPort 1100
param **.sink_042.app[0].replyDelay 0s
param **.sink_043.numApps 1
param **.sink_043.app[0].typename "\"TcpGenericServerApp\""
param **.sink_043.app[0].localAddress "\"\""
param **.sink_043.app[0].localPort 1100
param **.sink_043.app[0].replyDelay 0s
param **.sink_044.numApps 1
param **.sink_044.app[0].typename "\"TcpGenericServerApp\""
param **.sink_044.app[0].localAddress "\"\""
param **.sink_044.app[0].localPort 1100
param **.sink_044.app[0].replyDelay 0s
param **.sink_045.numApps 1
param **.sink_045.app[0].typename "\"TcpGenericServerApp\""
param **.sink_045.app[0].localAddress "\"\""
param **.sink_045.app[0].localPort 1100
param **.sink_045.app[0].replyDelay 0s
param **.sink_046.numApps 1
param **.sink_046.app[0].typename "\"TcpGenericServerApp\""
param **.sink_046.app[0].localAddress "\"\""
param **.sink_046.app[0].localPort 1100
param **.sink_046.app[0].replyDelay 0s
param **.sink_047.numApps 1
param **.sink_047.app[0].typename "\"TcpGenericServerApp\""
param **.sink_047.app[0].localAddress "\"\""
param **.sink_047.app[0].localPort 1100
param **.sink_047.app[0].replyDelay 0s
param **.sink_048.numApps 1
param **.sink_048.app[0].typename "\"TcpGenericServerApp\""
param **.sink_048.app[0].localAddress "\"\""
param **.sink_048.app[0].localPort 1100
param **.sink_048.app[0].replyDelay 0s
param **.sink_049.numApps 1
param **.sink_049.app[0].typename "\"TcpGenericServerApp\""
param **.sink_049.app[0].localAddress "\"\""
param **.sink_049.app[0].localPort 1100
param **.sink_049.app[0].replyDelay 0s
param **.sink_050.numApps 1
param **.sink_050.app[0].typename "\"TcpGenericServerApp\""
param **.sink_050.app[0].localAddress "\"\""
param **.sink_050.app[0].localPort 1100
param **.sink_050.app[0].replyDelay 0s
param **.sink_051.numApps 1
param **.sink_051.app[0].typename "\"TcpGenericServerApp\""
param **.sink_051.app[0].localAddress "\"\""
param **.sink_051.app[0].localPort 1100
param **.sink_051.app[0].replyDelay 0s
param **.sink_052.numApps 1
param **.sink_052.app[0].typename "\"TcpGenericServerApp\""
param **.sink_052.app[0].localAddress "\"\""
param **.sink_052.app[0].localPort 1100
param **.sink_052.app[0].replyDelay 0s
param **.sink_053.numApps 1
param **.sink_053.app[0].typename "\"TcpGenericServerApp\""
param **.sink_053.app[0].localAddress "\"\""
param **.sink_053.app[0].localPort 1100
param **.sink_053.app[0].replyDelay 0s
param **.sink_054.numApps 1
param **.sink_054.app[0].typename "\"TcpGenericServerApp\""
param **.sink_054.app[0].localAddress "\"\""
param **.sink_054.app[0].localPort 1100
param **.sink_054.app[0].replyDelay 0s
param **.sink_055.numApps 1
param **.sink_055.app[0].typename "\"TcpGenericServerApp\""
param **.sink_055.app[0].localAddress "\"\""
param **.sink_055.app[0].localPort 1100
param **.sink_055.app[0].replyDelay 0s
param **.sink_056.numApps 1
param **.sink_056.app[0].typename "\"TcpGenericServerApp\""
param **.sink_056.app[0].localAddress "\"\""
param **.sink_056.app[0].localPort 1100
param **.sink_056.app[0].replyDelay 0s
param **.sink_057.numApps 1
param **.sink_057.app[0].typename "\"TcpGenericServerApp\""
param **.sink_057.app[0].localAddress "\"\""
param **.sink_057.app[0].localPort 1100
param **.sink_057.app[0].replyDelay 0s
param **.sink_058.numApps 1
param **.sink_058.app[0].typename "\"TcpGenericServerApp\""
param **.sink_058.app[0].localAddress "\"\""
param **.sink_058.app[0].localPort 1100
param **.sink_058.app[0].replyDelay 0s
param **.sink_059.numApps 1
param **.sink_059.app[0].typename "\"TcpGenericServerApp\""
param **.sink_059.app[0].localAddress "\"\""
param **.sink_059.app[0].localPort 1100
param **.sink_059.app[0].replyDelay 0s
param **.sink_060.numApps 1
param **.sink_060.app[0].typename "\"TcpGenericServerApp\""
param **.sink_060.app[0].localAddress "\"\""
param **.sink_060.app[0].localPort 1100
param **.sink_060.app[0].replyDelay 0s
param **.sink_061.numApps 1
param **.sink_061.app[0].typename "\"TcpGenericServerApp\""
param **.sink_061.app[0].localAddress "\"\""
param **.sink_061.app[0].localPort 1100
param **.sink_061.app[0].replyDelay 0s
param **.sink_062.numApps 1
param **.sink_062.app[0].typename "\"TcpGenericServerApp\""
param **.sink_062.app[0].localAddress "\"\""
param **.sink_062.app[0].localPort 1100
param **.sink_062.app[0].replyDelay 0s
param **.sink_063.numApps 1
param **.sink_063.app[0].typename "\"TcpGenericServerApp\""
param **.sink_063.app[0].localAddress "\"\""
param **.sink_063.app[0].localPort 1100
param **.sink_063.app[0].replyDelay 0s
param **.sink_064.numApps 1
param **.sink_064.app[0].typename "\"TcpGenericServerApp\""
param **.sink_064.app[0].localAddress "\"\""
param **.sink_064.app[0].localPort 1100
param **.sink_064.app[0].replyDelay 0s
param **.sink_065.numApps 1
param **.sink_065.app[0].typename "\"TcpGenericServerApp\""
param **.sink_065.app[0].localAddress "\"\""
param **.sink_065.app[0].localPort 1100
param **.sink_065.app[0].replyDelay 0s
param **.sink_066.numApps 1
param **.sink_066.app[0].typename "\"TcpGenericServerApp\""
param **.sink_066.app[0].localAddress "\"\""
param **.sink_066.app[0].localPort 1100
param **.sink_066.app[0].replyDelay 0s
param **.sink_067.numApps 1
param **.sink_067.app[0].typename "\"TcpGenericServerApp\""
param **.sink_067.app[0].localAddress "\"\""
param **.sink_067.app[0].localPort 1100
param **.sink_067.app[0].replyDelay 0s
param **.sink_068.numApps 1
param **.sink_068.app[0].typename "\"TcpGenericServerApp\""
param **.sink_068.app[0].localAddress "\"\""
param **.sink_068.app[0].localPort 1100
param **.sink_068.app[0].replyDelay 0s
param **.sink_069.numApps 1
param **.sink_069.app[0].typename "\"TcpGenericServerApp\""
param **.sink_069.app[0].localAddress "\"\""
param **.sink_069.app[0].localPort 1100
param **.sink_069.app[0].replyDelay 0s
param **.sink_070.numApps 1
param **.sink_070.app[0].typename "\"TcpGenericServerApp\""
param **.sink_070.app[0].localAddress "\"\""
param **.sink_070.app[0].localPort 1100
param **.sink_070.app[0].replyDelay 0s
param **.sink_071.numApps 1
param **.sink_071.app[0].typename "\"TcpGenericServerApp\""
param **.sink_071.app[0].localAddress "\"\""
param **.sink_071.app[0].localPort 1100
param **.sink_071.app[0].replyDelay 0s
param **.sink_072.numApps 1
param **.sink_072.app[0].typename "\"TcpGenericServerApp\""
param **.sink_072.app[0].localAddress "\"\""
param **.sink_072.app[0].localPort 1100
param **.sink_072.app[0].replyDelay 0s
param **.sink_073.numApps 1
param **.sink_073.app[0].typename "\"TcpGenericServerApp\""
param **.sink_073.app[0].localAddress "\"\""
param **.sink_073.app[0].localPort 1100
param **.sink_073.app[0].replyDelay 0s
param **.sink_074.numApps 1
param **.sink_074.app[0].typename "\"TcpGenericServerApp\""
param **.sink_074.app[0].localAddress "\"\""
param **.sink_074.app[0].localPort 1100
param **.sink_074.app[0].replyDelay 0s
param **.sink_075.numApps 1
param **.sink_075.app[0].typename "\"TcpGenericServerApp\""
param **.sink_075.app[0].localAddress "\"\""
param **.sink_075.app[0].localPort 1100
param **.sink_075.app[0].replyDelay 0s
param **.sink_076.numApps 1
param **.sink_076.app[0].typename "\"TcpGenericServerApp\""
param **.sink_076.app[0].localAddress "\"\""
param **.sink_076.app[0].localPort 1100
param **.sink_076.app[0].replyDelay 0s
param **.sink_077.numApps 1
param **.sink_077.app[0].typename "\"TcpGenericServerApp\""
param **.sink_077.app[0].localAddress "\"\""
param **.sink_077.app[0].localPort 1100
param **.sink_077.app[0].replyDelay 0s
param **.sink_078.numApps 1
param **.sink_078.app[0].typename "\"TcpGenericServerApp\""
param **.sink_078.app[0].localAddress "\"\""
param **.sink_078.app[0].localPort 1100
param **.sink_078.app[0].replyDelay 0s
param **.sink_079.numApps 1
param **.sink_079.app[0].typename "\"TcpGenericServerApp\""
param **.sink_079.app[0].localAddress "\"\""
param **.sink_079.app[0].localPort 1100
param **.sink_079.app[0].replyDelay 0s
param **.sink_080.numApps 1
param **.sink_080.app[0].typename "\"TcpGenericServerApp\""
param **.sink_080.app[0].localAddress "\"\""
param **.sink_080.app[0].localPort 1100
param **.sink_080.app[0].replyDelay 0s
param **.sink_081.numApps 1
param **.sink_081.app[0].typename "\"TcpGenericServerApp\""
param **.sink_081.app[0].localAddress "\"\""
param **.sink_081.app[0].localPort 1100
param **.sink_081.app[0].replyDelay 0s
param **.sink_082.numApps 1
param **.sink_082.app[0].typename "\"TcpGenericServerApp\""
param **.sink_082.app[0].localAddress "\"\""
param **.sink_082.app[0].localPort 1100
param **.sink_082.app[0].replyDelay 0s
param **.sink_083.numApps 1
param **.sink_083.app[0].typename "\"TcpGenericServerApp\""
param **.sink_083.app[0].localAddress "\"\""
param **.sink_083.app[0].localPort 1100
param **.sink_083.app[0].replyDelay 0s
param **.sink_084.numApps 1
param **.sink_084.app[0].typename "\"TcpGenericServerApp\""
param **.sink_084.app[0].localAddress "\"\""
param **.sink_084.app[0].localPort 1100
param **.sink_084.app[0].replyDelay 0s
param **.sink_085.numApps 1
param **.sink_085.app[0].typename "\"TcpGenericServerApp\""
param **.sink_085.app[0].localAddress "\"\""
param **.sink_085.app[0].localPort 1100
param **.sink_085.app[0].replyDelay 0s
param **.sink_086.numApps 1
param **.sink_086.app[0].typename "\"TcpGenericServerApp\""
param **.sink_086.app[0].localAddress "\"\""
param **.sink_086.app[0].localPort 1100
param **.sink_086.app[0].replyDelay 0s
param **.sink_087.numApps 1
param **.sink_087.app[0].typename "\"TcpGenericServerApp\""
param **.sink_087.app[0].localAddress "\"\""
param **.sink_087.app[0].localPort 1100
param **.sink_087.app[0].replyDelay 0s
param **.sink_088.numApps 1
param **.sink_088.app[0].typename "\"TcpGenericServerApp\""
param **.sink_088.app[0].localAddress "\"\""
param **.sink_088.app[0].localPort 1100
param **.sink_088.app[0].replyDelay 0s
param **.sink_089.numApps 1
param **.sink_089.app[0].typename "\"TcpGenericServerApp\""
param **.sink_089.app[0].localAddress "\"\""
param **.sink_089.app[0].localPort 1100
param **.sink_089.app[0].replyDelay 0s
param **.sink_090.numApps 1
param **.sink_090.app[0].typename "\"TcpGenericServerApp\""
param **.sink_090.app[0].localAddress "\"\""
param **.sink_090.app[0].localPort 1100
param **.sink_090.app[0].replyDelay 0s
param **.sink_091.numApps 1
param **.sink_091.app[0].typename "\"TcpGenericServerApp\""
param **.sink_091.app[0].localAddress "\"\""
param **.sink_091.app[0].localPort 1100
param **.sink_091.app[0].replyDelay 0s
param **.sink_092.numApps 1
param **.sink_092.app[0].typename "\"TcpGenericServerApp\""
param **.sink_092.app[0].localAddress "\"\""
param **.sink_092.app[0].localPort 1100
param **.sink_092.app[0].replyDelay 0s
param **.sink_093.numApps 1
param **.sink_093.app[0].typename "\"TcpGenericServerApp\""
param **.sink_093.app[0].localAddress "\"\""
param **.sink_093.app[0].localPort 1100
param **.sink_093.app[0].replyDelay 0s
param **.sink_094.numApps 1
param **.sink_094.app[0].typename "\"TcpGenericServerApp\""
param **.sink_094.app[0].localAddress "\"\""
param **.sink_094.app[0].localPort 1100
param **.sink_094.app[0].replyDelay 0s
param **.sink_095.numApps 1
param **.sink_095.app[0].typename "\"TcpGenericServerApp\""
param **.sink_095.app[0].localAddress "\"\""
param **.sink_095.app[0].localPort 1100
param **.sink_095.app[0].replyDelay 0s
param **.sink_096.numApps 1
param **.sink_096.app[0].typename "\"TcpGenericServerApp\""
param **.sink_096.app[0].localAddress "\"\""
param **.sink_096.app[0].localPort 1100
param **.sink_096.app[0].replyDelay 0s
param **.sink_097.numApps 1
param **.sink_097.app[0].typename "\"TcpGenericServerApp\""
param **.sink_097.app[0].localAddress "\"\""
param **.sink_097.app[0].localPort 1100
param **.sink_097.app[0].replyDelay 0s
param **.sink_098.numApps 1
param **.sink_098.app[0].typename "\"TcpGenericServerApp\""
param **.sink_098.app[0].localAddress "\"\""
param **.sink_098.app[0].localPort 1100
param **.sink_098.app[0].replyDelay 0s
param **.sink_099.numApps 1
param **.sink_099.app[0].typename "\"TcpGenericServerApp\""
param **.sink_099.app[0].localAddress "\"\""
param **.sink_099.app[0].localPort 1100
param **.sink_099.app[0].replyDelay 0s
param **.sink_100.numApps 1
param **.sink_100.app[0].typename "\"TcpGenericServerApp\""
param **.sink_100.app[0].localAddress "\"\""
param **.sink_100.app[0].localPort 1100
param **.sink_100.app[0].replyDelay 0s
param **.sink_101.numApps 1
param **.sink_101.app[0].typename "\"TcpGenericServerApp\""
param **.sink_101.app[0].localAddress "\"\""
param **.sink_101.app[0].localPort 1100
param **.sink_101.app[0].replyDelay 0s
param **.sink_102.numApps 1
param **.sink_102.app[0].typename "\"TcpGenericServerApp\""
param **.sink_102.app[0].localAddress "\"\""
param **.sink_102.app[0].localPort 1100
param **.sink_102.app[0].replyDelay 0s
param **.sink_103.numApps 1
param **.sink_103.app[0].typename "\"TcpGenericServerApp\""
param **.sink_103.app[0].localAddress "\"\""
param **.sink_103.app[0].localPort 1100
param **.sink_103.app[0].replyDelay 0s
param **.sink_104.numApps 1
param **.sink_104.app[0].typename "\"TcpGenericServerApp\""
param **.sink_104.app[0].localAddress "\"\""
param **.sink_104.app[0].localPort 1100
param **.sink_104.app[0].replyDelay 0s
param **.sink_105.numApps 1
param **.sink_105.app[0].typename "\"TcpGenericServerApp\""
param **.sink_105.app[0].localAddress "\"\""
param **.sink_105.app[0].localPort 1100
param **.sink_105.app[0].replyDelay 0s
param **.sink_106.numApps 1
param **.sink_106.app[0].typename "\"TcpGenericServerApp\""
param **.sink_106.app[0].localAddress "\"\""
param **.sink_106.app[0].localPort 1100
param **.sink_106.app[0].replyDelay 0s
param **.sink_107.numApps 1
param **.sink_107.app[0].typename "\"TcpGenericServerApp\""
param **.sink_107.app[0].localAddress "\"\""
param **.sink_107.app[0].localPort 1100
param **.sink_107.app[0].replyDelay 0s
param **.sink_108.numApps 1
param **.sink_108.app[0].typename "\"TcpGenericServerApp\""
param **.sink_108.app[0].localAddress "\"\""
param **.sink_108.app[0].localPort 1100
param **.sink_108.app[0].replyDelay 0s
param **.sink_109.numApps 1
param **.sink_109.app[0].typename "\"TcpGenericServerApp\""
param **.sink_109.app[0].localAddress "\"\""
param **.sink_109.app[0].localPort 1100
param **.sink_109.app[0].replyDelay 0s
param **.sink_110.numApps 1
param **.sink_110.app[0].typename "\"TcpGenericServerApp\""
param **.sink_110.app[0].localAddress "\"\""
param **.sink_110.app[0].localPort 1100
param **.sink_110.app[0].replyDelay 0s
param **.sink_111.numApps 1
param **.sink_111.app[0].typename "\"TcpGenericServerApp\""
param **.sink_111.app[0].localAddress "\"\""
param **.sink_111.app[0].localPort 1100
param **.sink_111.app[0].replyDelay 0s
param **.sink_112.numApps 1
param **.sink_112.app[0].typename "\"TcpGenericServerApp\""
param **.sink_112.app[0].localAddress "\"\""
param **.sink_112.app[0].localPort 1100
param **.sink_112.app[0].replyDelay 0s
param **.sink_113.numApps 1
param **.sink_113.app[0].typename "\"TcpGenericServerApp\""
param **.sink_113.app[0].localAddress "\"\""
param **.sink_113.app[0].localPort 1100
param **.sink_113.app[0].replyDelay 0s
param **.sink_114.numApps 1
param **.sink_114.app[0].typename "\"TcpGenericServerApp\""
param **.sink_114.app[0].localAddress "\"\""
param **.sink_114.app[0].localPort 1100
param **.sink_114.app[0].replyDelay 0s
param **.sink_115.numApps 1
param **.sink_115.app[0].typename "\"TcpGenericServerApp\""
param **.sink_115.app[0].localAddress "\"\""
param **.sink_115.app[0].localPort 1100
param **.sink_115.app[0].replyDelay 0s
param **.sink_116.numApps 1
param **.sink_116.app[0].typename "\"TcpGenericServerApp\""
param **.sink_116.app[0].localAddress "\"\""
param **.sink_116.app[0].localPort 1100
param **.sink_116.app[0].replyDelay 0s
param **.sink_117.numApps 1
param **.sink_117.app[0].typename "\"TcpGenericServerApp\""
param **.sink_117.app[0].localAddress "\"\""
param **.sink_117.app[0].localPort 1100
param **.sink_117.app[0].replyDelay 0s
param **.sink_118.numApps 1
param **.sink_118.app[0].typename "\"TcpGenericServerApp\""
param **.sink_118.app[0].localAddress "\"\""
param **.sink_118.app[0].localPort 1100
param **.sink_118.app[0].replyDelay 0s
param **.sink_119.numApps 1
param **.sink_119.app[0].typename "\"TcpGenericServerApp\""
param **.sink_119.app[0].localAddress "\"\""
param **.sink_119.app[0].localPort 1100
param **.sink_119.app[0].replyDelay 0s
param **.sink_120.numApps 1
param **.sink_120.app[0].typename "\"TcpGenericServerApp\""
param **.sink_120.app[0].localAddress "\"\""
param **.sink_120.app[0].localPort 1100
param **.sink_120.app[0].replyDelay 0s
param **.sink_121.numApps 1
param **.sink_121.app[0].typename "\"TcpGenericServerApp\""
param **.sink_121.app[0].localAddress "\"\""
param **.sink_121.app[0].localPort 1100
param **.sink_121.app[0].replyDelay 0s
param **.sink_122.numApps 1
param **.sink_122.app[0].typename "\"TcpGenericServerApp\""
param **.sink_122.app[0].localAddress "\"\""
param **.sink_122.app[0].localPort 1100
param **.sink_122.app[0].replyDelay 0s
param **.sink_123.numApps 1
param **.sink_123.app[0].typename "\"TcpGenericServerApp\""
param **.sink_123.app[0].localAddress "\"\""
param **.sink_123.app[0].localPort 1100
param **.sink_123.app[0].replyDelay 0s
param **.sink_124.numApps 1
param **.sink_124.app[0].typename "\"TcpGenericServerApp\""
param **.sink_124.app[0].localAddress "\"\""
param **.sink_124.app[0].localPort 1100
param **.sink_124.app[0].replyDelay 0s
param **.sink_125.numApps 1
param **.sink_125.app[0].typename "\"TcpGenericServerApp\""
param **.sink_125.app[0].localAddress "\"\""
param **.sink_125.app[0].localPort 1100
param **.sink_125.app[0].replyDelay 0s
param **.sink_126.numApps 1
param **.sink_126.app[0].typename "\"TcpGenericServerApp\""
param **.sink_126.app[0].localAddress "\"\""
param **.sink_126.app[0].localPort 1100
param **.sink_126.app[0].replyDelay 0s
param **.sink_127.numApps 1
param **.sink_127.app[0].typename "\"TcpGenericServerApp\""
param **.sink_127.app[0].localAddress "\"\""
param **.sink_127.app[0].localPort 1100
param **.sink_127.app[0].replyDelay 0s
param **.sink_128.numApps 1
param **.sink_128.app[0].typename "\"TcpGenericServerApp\""
param **.sink_128.app[0].localAddress "\"\""
param **.sink_128.app[0].localPort 1100
param **.sink_128.app[0].replyDelay 0s
param **.sink_129.numApps 1
param **.sink_129.app[0].typename "\"TcpGenericServerApp\""
param **.sink_129.app[0].localAddress "\"\""
param **.sink_129.app[0].localPort 1100
param **.sink_129.app[0].replyDelay 0s
param **.sink_130.numApps 1
param **.sink_130.app[0].typename "\"TcpGenericServerApp\""
param **.sink_130.app[0].localAddress "\"\""
param **.sink_130.app[0].localPort 1100
param **.sink_130.app[0].replyDelay 0s
param **.sink_131.numApps 1
param **.sink_131.app[0].typename "\"TcpGenericServerApp\""
param **.sink_131.app[0].localAddress "\"\""
param **.sink_131.app[0].localPort 1100
param **.sink_131.app[0].replyDelay 0s
param **.sink_132.numApps 1
param **.sink_132.app[0].typename "\"TcpGenericServerApp\""
param **.sink_132.app[0].localAddress "\"\""
param **.sink_132.app[0].localPort 1100
param **.sink_132.app[0].replyDelay 0s
param **.sink_133.numApps 1
param **.sink_133.app[0].typename "\"TcpGenericServerApp\""
param **.sink_133.app[0].localAddress "\"\""
param **.sink_133.app[0].localPort 1100
param **.sink_133.app[0].replyDelay 0s
param **.sink_134.numApps 1
param **.sink_134.app[0].typename "\"TcpGenericServerApp\""
param **.sink_134.app[0].localAddress "\"\""
param **.sink_134.app[0].localPort 1100
param **.sink_134.app[0].replyDelay 0s
param **.sink_135.numApps 1
param **.sink_135.app[0].typename "\"TcpGenericServerApp\""
param **.sink_135.app[0].localAddress "\"\""
param **.sink_135.app[0].localPort 1100
param **.sink_135.app[0].replyDelay 0s
param **.sink_136.numApps 1
param **.sink_136.app[0].typename "\"TcpGenericServerApp\""
param **.sink_136.app[0].localAddress "\"\""
param **.sink_136.app[0].localPort 1100
param **.sink_136.app[0].replyDelay 0s
param **.sink_137.numApps 1
param **.sink_137.app[0].typename "\"TcpGenericServerApp\""
param **.sink_137.app[0].localAddress "\"\""
param **.sink_137.app[0].localPort 1100
param **.sink_137.app[0].replyDelay 0s
param **.sink_138.numApps 1
param **.sink_138.app[0].typename "\"TcpGenericServerApp\""
param **.sink_138.app[0].localAddress "\"\""
param **.sink_138.app[0].localPort 1100
param **.sink_138.app[0].replyDelay 0s
param **.sink_139.numApps 1
param **.sink_139.app[0].typename "\"TcpGenericServerApp\""
param **.sink_139.app[0].localAddress "\"\""
param **.sink_139.app[0].localPort 1100
param **.sink_139.app[0].replyDelay 0s
param **.sink_140.numApps 1
param **.sink_140.app[0].typename "\"TcpGenericServerApp\""
param **.sink_140.app[0].localAddress "\"\""
param **.sink_140.app[0].localPort 1100
param **.sink_140.app[0].replyDelay 0s
param **.sink_141.numApps 1
param **.sink_141.app[0].typename "\"TcpGenericServerApp\""
param **.sink_141.app[0].localAddress "\"\""
param **.sink_141.app[0].localPort 1100
param **.sink_141.app[0].replyDelay 0s
param **.sink_142.numApps 1
param **.sink_142.app[0].typename "\"TcpGenericServerApp\""
param **.sink_142.app[0].localAddress "\"\""
param **.sink_142.app[0].localPort 1100
param **.sink_142.app[0].replyDelay 0s
param **.sink_143.numApps 1
param **.sink_143.app[0].typename "\"TcpGenericServerApp\""
param **.sink_143.app[0].localAddress "\"\""
param **.sink_143.app[0].localPort 1100
param **.sink_143.app[0].replyDelay 0s
param **.sink_144.numApps 1
param **.sink_144.app[0].typename "\"TcpGenericServerApp\""
param **.sink_144.app[0].localAddress "\"\""
param **.sink_144.app[0].localPort 1100
param **.sink_144.app[0].replyDelay 0s
param **.sink_145.numApps 1
param **.sink_145.app[0].typename "\"TcpGenericServerApp\""
param **.sink_145.app[0].localAddress "\"\""
param **.sink_145.app[0].localPort 1100
param **.sink_145.app[0].replyDelay 0s
param **.sink_146.numApps 1
param **.sink_146.app[0].typename "\"TcpGenericServerApp\""
param **.sink_146.app[0].localAddress "\"\""
param **.sink_146.app[0].localPort 1100
param **.sink_146.app[0].replyDelay 0s
param **.source_000.numApps 1
param **.source_000.app[0].typename "\"TcpBasicClientApp\""
param **.source_000.app[0].localAddress "\"\""
param **.source_000.app[0].connectAddress "\"sink_000\""
param **.source_000.app[0].connectPort 1100
param **.source_000.app[0].startTime 0s
param **.source_000.app[0].idleInterval 1000s
param **.source_000.app[0].requestLength 1300B
param **.source_000.app[0].replyLength 20B
param **.source_000.app[0].thinkTime 0s
param **.source_000.app[0].numRequestsPerSession 8
param **.source_001.numApps 1
param **.source_001.app[0].typename "\"TcpBasicClientApp\""
param **.source_001.app[0].localAddress "\"\""
param **.source_001.app[0].connectAddress "\"sink_001\""
param **.source_001.app[0].connectPort 1100
param **.source_001.app[0].startTime 0s
param **.source_001.app[0].idleInterval 1000s
param **.source_001.app[0].requestLength 1300B
param **.source_001.app[0].replyLength 20B
param **.source_001.app[0].thinkTime 0s
param **.source_001.app[0].numRequestsPerSession 4
param **.source_002.numApps 1
param **.source_002.app[0].typename "\"TcpBasicClientApp\""
param **.source_002.app[0].localAddress "\"\""
param **.source_002.app[0].connectAddress "\"sink_002\""
param **.source_002.app[0].connectPort 1100
param **.source_002.app[0].startTime 0s
param **.source_002.app[0].idleInterval 1000s
param **.source_002.app[0].requestLength 1300B
param **.source_002.app[0].replyLength 20B
param **.source_002.app[0].thinkTime 0s
param **.source_002.app[0].numRequestsPerSession 8
param **.source_003.numApps 1
param **.source_003.app[0].typename "\"TcpBasicClientApp\""
param **.source_003.app[0].localAddress "\"\""
param **.source_003.app[0].connectAddress "\"sink_003\""
param **.source_003.app[0].connectPort 1100
param **.source_003.app[0].startTime 0s
param **.source_003.app[0].idleInterval 1000s
param **.source_003.app[0].requestLength 1300B
param **.source_003.app[0].replyLength 20B
param **.source_003.app[0].thinkTime 0s
param **.source_003.app[0].numRequestsPerSession 4
param **.source_004.numApps 1
param **.source_004.app[0].typename "\"TcpBasicClientApp\""
param **.source_004.app[0].localAddress "\"\""
param **.source_004.app[0].connectAddress "\"sink_004\""
param **.source_004.app[0].connectPort 1100
param **.source_004.app[0].startTime 0s
param **.source_004.app[0].idleInterval 1000s
param **.source_004.app[0].requestLength 1300B
param **.source_004.app[0].replyLength 20B
param **.source_004.app[0].thinkTime 0s
param **.source_004.app[0].numRequestsPerSession 3
param **.source_005.numApps 1
param **.source_005.app[0].typename "\"TcpBasicClientApp\""
param **.source_005.app[0].localAddress "\"\""
param **.source_005.app[0].connectAddress "\"sink_005\""
param **.source_005.app[0].connectPort 1100
param **.source_005.app[0].startTime 0s
param **.source_005.app[0].idleInterval 1000s
param **.source_005.app[0].requestLength 1300B
param **.source_005.app[0].replyLength 20B
param **.source_005.app[0].thinkTime 0s
param **.source_005.app[0].numRequestsPerSession 3
param **.source_006.numApps 1
param **.source_006.app[0].typename "\"TcpBasicClientApp\""
param **.source_006.app[0].localAddress "\"\""
param **.source_006.app[0].connectAddress "\"sink_006\""
param **.source_006.app[0].connectPort 1100
param **.source_006.app[0].startTime 0s
param **.source_006.app[0].idleInterval 1000s
param **.source_006.app[0].requestLength 1300B
param **.source_006.app[0].replyLength 20B
param **.source_006.app[0].thinkTime 0s
param **.source_006.app[0].numRequestsPerSession 5
param **.source_007.numApps 1
param **.source_007.app[0].typename "\"TcpBasicClientApp\""
param **.source_007.app[0].localAddress "\"\""
param **.source_007.app[0].connectAddress "\"sink_007\""
param **.source_007.app[0].connectPort 1100
param **.source_007.app[0].startTime 0s
param **.source_007.app[0].idleInterval 1000s
param **.source_007.app[0].requestLength 1300B
param **.source_007.app[0].replyLength 20B
param **.source_007.app[0].thinkTime 0s
param **.source_007.app[0].numRequestsPerSession 2
param **.source_008.numApps 1
param **.source_008.app[0].typename "\"TcpBasicClientApp\""
param **.source_008.app[0].localAddress "\"\""
param **.source_008.app[0].connectAddress "\"sink_008\""
param **.source_008.app[0].connectPort 1100
param **.source_008.app[0].startTime 0s
param **.source_008.app[0].idleInterval 1000s
param **.source_008.app[0].requestLength 1300B
param **.source_008.app[0].replyLength 20B
param **.source_008.app[0].thinkTime 0s
param **.source_008.app[0].numRequestsPerSession 34
param **.source_009.numApps 1
param **.source_009.app[0].typename "\"TcpBasicClientApp\""
param **.source_009.app[0].localAddress "\"\""
param **.source_009.app[0].connectAddress "\"sink_009\""
param **.source_009.app[0].connectPort 1100
param **.source_009.app[0].startTime 0s
param **.source_009.app[0].idleInterval 1000s
param **.source_009.app[0].requestLength 1300B
param **.source_009.app[0].replyLength 20B
param **.source_009.app[0].thinkTime 0s
param **.source_009.app[0].numRequestsPerSession 423
param **.source_010.numApps 1
param **.source_010.app[0].typename "\"TcpBasicClientApp\""
param **.source_010.app[0].localAddress "\"\""
param **.source_010.app[0].connectAddress "\"sink_010\""
param **.source_010.app[0].connectPort 1100
param **.source_010.app[0].startTime 0s
param **.source_010.app[0].idleInterval 1000s
param **.source_010.app[0].requestLength 1300B
param **.source_010.app[0].replyLength 20B
param **.source_010.app[0].thinkTime 0s
param **.source_010.app[0].numRequestsPerSession 16
param **.source_011.numApps 1
param **.source_011.app[0].typename "\"TcpBasicClientApp\""
param **.source_011.app[0].localAddress "\"\""
param **.source_011.app[0].connectAddress "\"sink_011\""
param **.source_011.app[0].connectPort 1100
param **.source_011.app[0].startTime 0s
param **.source_011.app[0].idleInterval 1000s
param **.source_011.app[0].requestLength 1300B
param **.source_011.app[0].replyLength 20B
param **.source_011.app[0].thinkTime 0s
param **.source_011.app[0].numRequestsPerSession 40
param **.source_012.numApps 1
param **.source_012.app[0].typename "\"TcpBasicClientApp\""
param **.source_012.app[0].localAddress "\"\""
param **.source_012.app[0].connectAddress "\"sink_012\""
param **.source_012.app[0].connectPort 1100
param **.source_012.app[0].startTime 0s
param **.source_012.app[0].idleInterval 1000s
param **.source_012.app[0].requestLength 1300B
param **.source_012.app[0].replyLength 20B
param **.source_012.app[0].thinkTime 0s
param **.source_012.app[0].numRequestsPerSession 226
param **.source_013.numApps 1
param **.source_013.app[0].typename "\"TcpBasicClientApp\""
param **.source_013.app[0].localAddress "\"\""
param **.source_013.app[0].connectAddress "\"sink_013\""
param **.source_013.app[0].connectPort 1100
param **.source_013.app[0].startTime 0s
param **.source_013.app[0].idleInterval 1000s
param **.source_013.app[0].requestLength 1300B
param **.source_013.app[0].replyLength 20B
param **.source_013.app[0].thinkTime 0s
param **.source_013.app[0].numRequestsPerSession 21
param **.source_014.numApps 1
param **.source_014.app[0].typename "\"TcpBasicClientApp\""
param **.source_014.app[0].localAddress "\"\""
param **.source_014.app[0].connectAddress "\"sink_014\""
param **.source_014.app[0].connectPort 1100
param **.source_014.app[0].startTime 0s
param **.source_014.app[0].idleInterval 1000s
param **.source_014.app[0].requestLength 1300B
param **.source_014.app[0].replyLength 20B
param **.source_014.app[0].thinkTime 0s
param **.source_014.app[0].numRequestsPerSession 269
param **.source_015.numApps 1
param **.source_015.app[0].typename "\"TcpBasicClientApp\""
param **.source_015.app[0].localAddress "\"\""
param **.source_015.app[0].connectAddress "\"sink_015\""
param **.source_015.app[0].connectPort 1100
param **.source_015.app[0].startTime 0s
param **.source_015.app[0].idleInterval 1000s
param **.source_015.app[0].requestLength 1300B
param **.source_015.app[0].replyLength 20B
param **.source_015.app[0].thinkTime 0s
param **.source_015.app[0].numRequestsPerSession 1
param **.source_016.numApps 1
param **.source_016.app[0].typename "\"TcpBasicClientApp\""
param **.source_016.app[0].localAddress "\"\""
param **.source_016.app[0].connectAddress "\"sink_016\""
param **.source_016.app[0].connectPort 1100
param **.source_016.app[0].startTime 0s
param **.source_016.app[0].idleInterval 1000s
param **.source_016.app[0].requestLength 1300B
param **.source_016.app[0].replyLength 20B
param **.source_016.app[0].thinkTime 0s
param **.source_016.app[0].numRequestsPerSession 6
param **.source_017.numApps 1
param **.source_017.app[0].typename "\"TcpBasicClientApp\""
param **.source_017.app[0].localAddress "\"\""
param **.source_017.app[0].connectAddress "\"sink_017\""
param **.source_017.app[0].connectPort 1100
param **.source_017.app[0].startTime 0s
param **.source_017.app[0].idleInterval 1000s
param **.source_017.app[0].requestLength 1300B
param **.source_017.app[0].replyLength 20B
param **.source_017.app[0].thinkTime 0s
param **.source_017.app[0].numRequestsPerSession 153
param **.source_018.numApps 1
param **.source_018.app[0].typename "\"TcpBasicClientApp\""
param **.source_018.app[0].localAddress "\"\""
param **.source_018.app[0].connectAddress "\"sink_018\""
param **.source_018.app[0].connectPort 1100
param **.source_018.app[0].startTime 0s
param **.source_018.app[0].idleInterval 1000s
param **.source_018.app[0].requestLength 1300B
param **.source_018.app[0].replyLength 20B
param **.source_018.app[0].thinkTime 0s
param **.source_018.app[0].numRequestsPerSession 37
param **.source_019.numApps 1
param **.source_019.app[0].typename "\"TcpBasicClientApp\""
param **.source_019.app[0].localAddress "\"\""
param **.source_019.app[0].connectAddress "\"sink_019\""
param **.source_019.app[0].connectPort 1100
param **.source_019.app[0].startTime 0s
param **.source_019.app[0].idleInterval 1000s
param **.source_019.app[0].requestLength 1300B
param **.source_019.app[0].replyLength 20B
param **.source_019.app[0].thinkTime 0s
param **.source_019.app[0].numRequestsPerSession 9
param **.source_020.numApps 1
param **.source_020.app[0].typename "\"TcpBasicClientApp\""
param **.source_020.app[0].localAddress "\"\""
param **.source_020.app[0].connectAddress "\"sink_020\""
param **.source_020.app[0].connectPort 1100
param **.source_020.app[0].startTime 0s
param **.source_020.app[0].idleInterval 1000s
param **.source_020.app[0].requestLength 1300B
param **.source_020.app[0].replyLength 20B
param **.source_020.app[0].thinkTime 0s
param **.source_020.app[0].numRequestsPerSession 64
param **.source_021.numApps 1
param **.source_021.app[0].typename "\"TcpBasicClientApp\""
param **.source_021.app[0].localAddress "\"\""
param **.source_021.app[0].connectAddress "\"sink_021\""
param **.source_021.app[0].connectPort 1100
param **.source_021.app[0].startTime 0s
param **.source_021.app[0].idleInterval 1000s
param **.source_021.app[0].requestLength 1300B
param **.source_021.app[0].replyLength 20B
param **.source_021.app[0].thinkTime 0s
param **.source_021.app[0].numRequestsPerSession 19
param **.source_022.numApps 1
param **.source_022.app[0].typename "\"TcpBasicClientApp\""
param **.source_022.app[0].localAddress "\"\""
param **.source_022.app[0].connectAddress "\"sink_022\""
param **.source_022.app[0].connectPort 1100
param **.source_022.app[0].startTime 0s
param **.source_022.app[0].idleInterval 1000s
param **.source_022.app[0].requestLength 1300B
param **.source_022.app[0].replyLength 20B
param **.source_022.app[0].thinkTime 0s
param **.source_022.app[0].numRequestsPerSession 26
param **.source_023.numApps 1
param **.source_023.app[0].typename "\"TcpBasicClientApp\""
param **.source_023.app[0].localAddress "\"\""
param **.source_023.app[0].connectAddress "\"sink_023\""
param **.source_023.app[0].connectPort 1100
param **.source_023.app[0].startTime 0s
param **.source_023.app[0].idleInterval 1000s
param **.source_023.app[0].requestLength 1300B
param **.source_023.app[0].replyLength 20B
param **.source_023.app[0].thinkTime 0s
param **.source_023.app[0].numRequestsPerSession 4
param **.source_024.numApps 1
param **.source_024.app[0].typename "\"TcpBasicClientApp\""
param **.source_024.app[0].localAddress "\"\""
param **.source_024.app[0].connectAddress "\"sink_024\""
param **.source_024.app[0].connectPort 1100
param **.source_024.app[0].startTime 0s
param **.source_024.app[0].idleInterval 1000s
param **.source_024.app[0].requestLength 1300B
param **.source_024.app[0].replyLength 20B
param **.source_024.app[0].thinkTime 0s
param **.source_024.app[0].numRequestsPerSession 13
param **.source_025.numApps 1
param **.source_025.app[0].typename "\"TcpBasicClientApp\""
param **.source_025.app[0].localAddress "\"\""
param **.source_025.app[0].connectAddress "\"sink_025\""
param **.source_025.app[0].connectPort 1100
param **.source_025.app[0].startTime 0s
param **.source_025.app[0].idleInterval 1000s
param **.source_025.app[0].requestLength 1300B
param **.source_025.app[0].replyLength 20B
param **.source_025.app[0].thinkTime 0s
param **.source_025.app[0].numRequestsPerSession 17
param **.source_026.numApps 1
param **.source_026.app[0].typename "\"TcpBasicClientApp\""
param **.source_026.app[0].localAddress "\"\""
param **.source_026.app[0].connectAddress "\"sink_026\""
param **.source_026.app[0].connectPort 1100
param **.source_026.app[0].startTime 0s
param **.source_026.app[0].idleInterval 1000s
param **.source_026.app[0].requestLength 1300B
param **.source_026.app[0].replyLength 20B
param **.source_026.app[0].thinkTime 0s
param **.source_026.app[0].numRequestsPerSession 3
param **.source_027.numApps 1
param **.source_027.app[0].typename "\"TcpBasicClientApp\""
param **.source_027.app[0].localAddress "\"\""
param **.source_027.app[0].connectAddress "\"sink_027\""
param **.source_027.app[0].connectPort 1100
param **.source_027.app[0].startTime 0s
param **.source_027.app[0].idleInterval 1000s
param **.source_027.app[0].requestLength 1300B
param **.source_027.app[0].replyLength 20B
param **.source_027.app[0].thinkTime 0s
param **.source_027.app[0].numRequestsPerSession 7
param **.source_028.numApps 1
param **.source_028.app[0].typename "\"TcpBasicClientApp\""
param **.source_028.app[0].localAddress "\"\""
param **.source_028.app[0].connectAddress "\"sink_028\""
param **.source_028.app[0].connectPort 1100
param **.source_028.app[0].startTime 0s
param **.source_028.app[0].idleInterval 1000s
param **.source_028.app[0].requestLength 1300B
param **.source_028.app[0].replyLength 20B
param **.source_028.app[0].thinkTime 0s
param **.source_028.app[0].numRequestsPerSession 128
param **.source_029.numApps 1
param **.source_029.app[0].typename "\"TcpBasicClientApp\""
param **.source_029.app[0].localAddress "\"\""
param **.source_029.app[0].connectAddress "\"sink_029\""
param **.source_029.app[0].connectPort 1100
param **.source_029.app[0].startTime 0s
param **.source_029.app[0].idleInterval 1000s
param **.source_029.app[0].requestLength 1300B
param **.source_029.app[0].replyLength 20B
param **.source_029.app[0].thinkTime 0s
param **.source_029.app[0].numRequestsPerSession 1
param **.source_030.numApps 1
param **.source_030.app[0].typename "\"TcpBasicClientApp\""
param **.source_030.app[0].localAddress "\"\""
param **.source_030.app[0].connectAddress "\"sink_030\""
param **.source_030.app[0].connectPort 1100
param **.source_030.app[0].startTime 0s
param **.source_030.app[0].idleInterval 1000s
param **.source_030.app[0].requestLength 1300B
param **.source_030.app[0].replyLength 20B
param **.source_030.app[0].thinkTime 0s
param **.source_030.app[0].numRequestsPerSession 5
param **.source_031.numApps 1
param **.source_031.app[0].typename "\"TcpBasicClientApp\""
param **.source_031.app[0].localAddress "\"\""
param **.source_031.app[0].connectAddress "\"sink_031\""
param **.source_031.app[0].connectPort 1100
param **.source_031.app[0].startTime 0s
param **.source_031.app[0].idleInterval 1000s
param **.source_031.app[0].requestLength 1300B
param **.source_031.app[0].replyLength 20B
param **.source_031.app[0].thinkTime 0s
param **.source_031.app[0].numRequestsPerSession 15
param **.source_032.numApps 1
param **.source_032.app[0].typename "\"TcpBasicClientApp\""
param **.source_032.app[0].localAddress "\"\""
param **.source_032.app[0].connectAddress "\"sink_032\""
param **.source_032.app[0].connectPort 1100
param **.source_032.app[0].startTime 0s
param **.source_032.app[0].idleInterval 1000s
param **.source_032.app[0].requestLength 1300B
param **.source_032.app[0].replyLength 20B
param **.source_032.app[0].thinkTime 0s
param **.source_032.app[0].numRequestsPerSession 104
param **.source_033.numApps 1
param **.source_033.app[0].typename "\"TcpBasicClientApp\""
param **.source_033.app[0].localAddress "\"\""
param **.source_033.app[0].connectAddress "\"sink_033\""
param **.source_033.app[0].connectPort 1100
param **.source_033.app[0].startTime 0s
param **.source_033.app[0].idleInterval 1000s
param **.source_033.app[0].requestLength 1300B
param **.source_033.app[0].replyLength 20B
param **.source_033.app[0].thinkTime 0s
param **.source_033.app[0].numRequestsPerSession 85
param **.source_034.numApps 1
param **.source_034.app[0].typename "\"TcpBasicClientApp\""
param **.source_034.app[0].localAddress "\"\""
param **.source_034.app[0].connectAddress "\"sink_034\""
param **.source_034.app[0].connectPort 1100
param **.source_034.app[0].startTime 0s
param **.source_034.app[0].idleInterval 1000s
param **.source_034.app[0].requestLength 1300B
param **.source_034.app[0].replyLength 20B
param **.source_034.app[0].thinkTime 0s
param **.source_034.app[0].numRequestsPerSession 155
param **.source_035.numApps 1
param **.source_035.app[0].typename "\"TcpBasicClientApp\""
param **.source_035.app[0].localAddress "\"\""
param **.source_035.app[0].connectAddress "\"sink_035\""
param **.source_035.app[0].connectPort 1100
param **.source_035.app[0].startTime 0s
param **.source_035.app[0].idleInterval 1000s
param **.source_035.app[0].requestLength 1300B
param **.source_035.app[0].replyLength 20B
param **.source_035.app[0].thinkTime 0s
param **.source_035.app[0].numRequestsPerSession 189
param **.source_036.numApps 1
param **.source_036.app[0].typename "\"TcpBasicClientApp\""
param **.source_036.app[0].localAddress "\"\""
param **.source_036.app[0].connectAddress "\"sink_036\""
param **.source_036.app[0].connectPort 1100
param **.source_036.app[0].startTime 0s
param **.source_036.app[0].idleInterval 1000s
param **.source_036.app[0].requestLength 1300B
param **.source_036.app[0].replyLength 20B
param **.source_036.app[0].thinkTime 0s
param **.source_036.app[0].numRequestsPerSession 2
param **.source_037.numApps 1
param **.source_037.app[0].typename "\"TcpBasicClientApp\""
param **.source_037.app[0].localAddress "\"\""
param **.source_037.app[0].connectAddress "\"sink_037\""
param **.source_037.app[0].connectPort 1100
param **.source_037.app[0].startTime 0s
param **.source_037.app[0].idleInterval 1000s
param **.source_037.app[0].requestLength 1300B
param **.source_037.app[0].replyLength 20B
param **.source_037.app[0].thinkTime 0s
param **.source_037.app[0].numRequestsPerSession 7
param **.source_038.numApps 1
param **.source_038.app[0].typename "\"TcpBasicClientApp\""
param **.source_038.app[0].localAddress "\"\""
param **.source_038.app[0].connectAddress "\"sink_038\""
param **.source_038.app[0].connectPort 1100
param **.source_038.app[0].startTime 0s
param **.source_038.app[0].idleInterval 1000s
param **.source_038.app[0].requestLength 1300B
param **.source_038.app[0].replyLength 20B
param **.source_038.app[0].thinkTime 0s
param **.source_038.app[0].numRequestsPerSession 3
param **.source_039.numApps 1
param **.source_039.app[0].typename "\"TcpBasicClientApp\""
param **.source_039.app[0].localAddress "\"\""
param **.source_039.app[0].connectAddress "\"sink_039\""
param **.source_039.app[0].connectPort 1100
param **.source_039.app[0].startTime 0s
param **.source_039.app[0].idleInterval 1000s
param **.source_039.app[0].requestLength 1300B
param **.source_039.app[0].replyLength 20B
param **.source_039.app[0].thinkTime 0s
param **.source_039.app[0].numRequestsPerSession 22
param **.source_040.numApps 1
param **.source_040.app[0].typename "\"TcpBasicClientApp\""
param **.source_040.app[0].localAddress "\"\""
param **.source_040.app[0].connectAddress "\"sink_040\""
param **.source_040.app[0].connectPort 1100
param **.source_040.app[0].startTime 0s
param **.source_040.app[0].idleInterval 1000s
param **.source_040.app[0].requestLength 1300B
param **.source_040.app[0].replyLength 20B
param **.source_040.app[0].thinkTime 0s
param **.source_040.app[0].numRequestsPerSession 4
param **.source_041.numApps 1
param **.source_041.app[0].typename "\"TcpBasicClientApp\""
param **.source_041.app[0].localAddress "\"\""
param **.source_041.app[0].connectAddress "\"sink_041\""
param **.source_041.app[0].connectPort 1100
param **.source_041.app[0].startTime 0s
param **.source_041.app[0].idleInterval 1000s
param **.source_041.app[0].requestLength 1300B
param **.source_041.app[0].replyLength 20B
param **.source_041.app[0].thinkTime 0s
param **.source_041.app[0].numRequestsPerSession 1
param **.source_042.numApps 1
param **.source_042.app[0].typename "\"TcpBasicClientApp\""
param **.source_042.app[0].localAddress "\"\""
param **.source_042.app[0].connectAddress "\"sink_042\""
param **.source_042.app[0].connectPort 1100
param **.source_042.app[0].startTime 0s
param **.source_042.app[0].idleInterval 1000s
param **.source_042.app[0].requestLength 1300B
param **.source_042.app[0].replyLength 20B
param **.source_042.app[0].thinkTime 0s
param **.source_042.app[0].numRequestsPerSession 182
param **.source_043.numApps 1
param **.source_043.app[0].typename "\"TcpBasicClientApp\""
param **.source_043.app[0].localAddress "\"\""
param **.source_043.app[0].connectAddress "\"sink_043\""
param **.source_043.app[0].connectPort 1100
param **.source_043.app[0].startTime 0s
param **.source_043.app[0].idleInterval 1000s
param **.source_043.app[0].requestLength 1300B
param **.source_043.app[0].replyLength 20B
param **.source_043.app[0].thinkTime 0s
param **.source_043.app[0].numRequestsPerSession 6
param **.source_044.numApps 1
param **.source_044.app[0].typename "\"TcpBasicClientApp\""
param **.source_044.app[0].localAddress "\"\""
param **.source_044.app[0].connectAddress "\"sink_044\""
param **.source_044.app[0].connectPort 1100
param **.source_044.app[0].startTime 0s
param **.source_044.app[0].idleInterval 1000s
param **.source_044.app[0].requestLength 1300B
param **.source_044.app[0].replyLength 20B
param **.source_044.app[0].thinkTime 0s
param **.source_044.app[0].numRequestsPerSession 2
param **.source_045.numApps 1
param **.source_045.app[0].typename "\"TcpBasicClientApp\""
param **.source_045.app[0].localAddress "\"\""
param **.source_045.app[0].connectAddress "\"sink_045\""
param **.source_045.app[0].connectPort 1100
param **.source_045.app[0].startTime 0s
param **.source_045.app[0].idleInterval 1000s
param **.source_045.app[0].requestLength 1300B
param **.source_045.app[0].replyLength 20B
param **.source_045.app[0].thinkTime 0s
param **.source_045.app[0].numRequestsPerSession 52
param **.source_046.numApps 1
param **.source_046.app[0].typename "\"TcpBasicClientApp\""
param **.source_046.app[0].localAddress "\"\""
param **.source_046.app[0].connectAddress "\"sink_046\""
param **.source_046.app[0].connectPort 1100
param **.source_046.app[0].startTime 0s
param **.source_046.app[0].idleInterval 1000s
param **.source_046.app[0].requestLength 1300B
param **.source_046.app[0].replyLength 20B
param **.source_046.app[0].thinkTime 0s
param **.source_046.app[0].numRequestsPerSession 3
param **.source_047.numApps 1
param **.source_047.app[0].typename "\"TcpBasicClientApp\""
param **.source_047.app[0].localAddress "\"\""
param **.source_047.app[0].connectAddress "\"sink_047\""
param **.source_047.app[0].connectPort 1100
param **.source_047.app[0].startTime 0s
param **.source_047.app[0].idleInterval 1000s
param **.source_047.app[0].requestLength 1300B
param **.source_047.app[0].replyLength 20B
param **.source_047.app[0].thinkTime 0s
param **.source_047.app[0].numRequestsPerSession 2
param **.source_048.numApps 1
param **.source_048.app[0].typename "\"TcpBasicClientApp\""
param **.source_048.app[0].localAddress "\"\""
param **.source_048.app[0].connectAddress "\"sink_048\""
param **.source_048.app[0].connectPort 1100
param **.source_048.app[0].startTime 0s
param **.source_048.app[0].idleInterval 1000s
param **.source_048.app[0].requestLength 1300B
param **.source_048.app[0].replyLength 20B
param **.source_048.app[0].thinkTime 0s
param **.source_048.app[0].numRequestsPerSession 7
param **.source_049.numApps 1
param **.source_049.app[0].typename "\"TcpBasicClientApp\""
param **.source_049.app[0].localAddress "\"\""
param **.source_049.app[0].connectAddress "\"sink_049\""
param **.source_049.app[0].connectPort 1100
param **.source_049.app[0].startTime 0s
param **.source_049.app[0].idleInterval 1000s
param **.source_049.app[0].requestLength 1300B
param **.source_049.app[0].replyLength 20B
param **.source_049.app[0].thinkTime 0s
param **.source_049.app[0].numRequestsPerSession 2
param **.source_050.numApps 1
param **.source_050.app[0].typename "\"TcpBasicClientApp\""
param **.source_050.app[0].localAddress "\"\""
param **.source_050.app[0].connectAddress "\"sink_050\""
param **.source_050.app[0].connectPort 1100
param **.source_050.app[0].startTime 0s
param **.source_050.app[0].idleInterval 1000s
param **.source_050.app[0].requestLength 1300B
param **.source_050.app[0].replyLength 20B
param **.source_050.app[0].thinkTime 0s
param **.source_050.app[0].numRequestsPerSession 2
param **.source_051.numApps 1
param **.source_051.app[0].typename "\"TcpBasicClientApp\""
param **.source_051.app[0].localAddress "\"\""
param **.source_051.app[0].connectAddress "\"sink_051\""
param **.source_051.app[0].connectPort 1100
param **.source_051.app[0].startTime 0s
param **.source_051.app[0].idleInterval 1000s
param **.source_051.app[0].requestLength 1300B
param **.source_051.app[0].replyLength 20B
param **.source_051.app[0].thinkTime 0s
param **.source_051.app[0].numRequestsPerSession 46
param **.source_052.numApps 1
param **.source_052.app[0].typename "\"TcpBasicClientApp\""
param **.source_052.app[0].localAddress "\"\""
param **.source_052.app[0].connectAddress "\"sink_052\""
param **.source_052.app[0].connectPort 1100
param **.source_052.app[0].startTime 0s
param **.source_052.app[0].idleInterval 1000s
param **.source_052.app[0].requestLength 1300B
param **.source_052.app[0].replyLength 20B
param **.source_052.app[0].thinkTime 0s
param **.source_052.app[0].numRequestsPerSession 1
param **.source_053.numApps 1
param **.source_053.app[0].typename "\"TcpBasicClientApp\""
param **.source_053.app[0].localAddress "\"\""
param **.source_053.app[0].connectAddress "\"sink_053\""
param **.source_053.app[0].connectPort 1100
param **.source_053.app[0].startTime 0s
param **.source_053.app[0].idleInterval 1000s
param **.source_053.app[0].requestLength 1300B
param **.source_053.app[0].replyLength 20B
param **.source_053.app[0].thinkTime 0s
param **.source_053.app[0].numRequestsPerSession 380
param **.source_054.numApps 1
param **.source_054.app[0].typename "\"TcpBasicClientApp\""
param **.source_054.app[0].localAddress "\"\""
param **.source_054.app[0].connectAddress "\"sink_054\""
param **.source_054.app[0].connectPort 1100
param **.source_054.app[0].startTime 0s
param **.source_054.app[0].idleInterval 1000s
param **.source_054.app[0].requestLength 1300B
param **.source_054.app[0].replyLength 20B
param **.source_054.app[0].thinkTime 0s
param **.source_054.app[0].numRequestsPerSession 5
param **.source_055.numApps 1
param **.source_055.app[0].typename "\"TcpBasicClientApp\""
param **.source_055.app[0].localAddress "\"\""
param **.source_055.app[0].connectAddress "\"sink_055\""
param **.source_055.app[0].connectPort 1100
param **.source_055.app[0].startTime 0s
param **.source_055.app[0].idleInterval 1000s
param **.source_055.app[0].requestLength 1300B
param **.source_055.app[0].replyLength 20B
param **.source_055.app[0].thinkTime 0s
param **.source_055.app[0].numRequestsPerSession 20
param **.source_056.numApps 1
param **.source_056.app[0].typename "\"TcpBasicClientApp\""
param **.source_056.app[0].localAddress "\"\""
param **.source_056.app[0].connectAddress "\"sink_056\""
param **.source_056.app[0].connectPort 1100
param **.source_056.app[0].startTime 0s
param **.source_056.app[0].idleInterval 1000s
param **.source_056.app[0].requestLength 1300B
param **.source_056.app[0].replyLength 20B
param **.source_056.app[0].thinkTime 0s
param **.source_056.app[0].numRequestsPerSession 247
param **.source_057.numApps 1
param **.source_057.app[0].typename "\"TcpBasicClientApp\""
param **.source_057.app[0].localAddress "\"\""
param **.source_057.app[0].connectAddress "\"sink_057\""
param **.source_057.app[0].connectPort 1100
param **.source_057.app[0].startTime 0s
param **.source_057.app[0].idleInterval 1000s
param **.source_057.app[0].requestLength 1300B
param **.source_057.app[0].replyLength 20B
param **.source_057.app[0].thinkTime 0s
param **.source_057.app[0].numRequestsPerSession 3
param **.source_058.numApps 1
param **.source_058.app[0].typename "\"TcpBasicClientApp\""
param **.source_058.app[0].localAddress "\"\""
param **.source_058.app[0].connectAddress "\"sink_058\""
param **.source_058.app[0].connectPort 1100
param **.source_058.app[0].startTime 0s
param **.source_058.app[0].idleInterval 1000s
param **.source_058.app[0].requestLength 1300B
param **.source_058.app[0].replyLength 20B
param **.source_058.app[0].thinkTime 0s
param **.source_058.app[0].numRequestsPerSession 4
param **.source_059.numApps 1
param **.source_059.app[0].typename "\"TcpBasicClientApp\""
param **.source_059.app[0].localAddress "\"\""
param **.source_059.app[0].connectAddress "\"sink_059\""
param **.source_059.app[0].connectPort 1100
param **.source_059.app[0].startTime 0s
param **.source_059.app[0].idleInterval 1000s
param **.source_059.app[0].requestLength 1300B
param **.source_059.app[0].replyLength 20B
param **.source_059.app[0].thinkTime 0s
param **.source_059.app[0].numRequestsPerSession 6
param **.source_060.numApps 1
param **.source_060.app[0].typename "\"TcpBasicClientApp\""
param **.source_060.app[0].localAddress "\"\""
param **.source_060.app[0].connectAddress "\"sink_060\""
param **.source_060.app[0].connectPort 1100
param **.source_060.app[0].startTime 0s
param **.source_060.app[0].idleInterval 1000s
param **.source_060.app[0].requestLength 1300B
param **.source_060.app[0].replyLength 20B
param **.source_060.app[0].thinkTime 0s
param **.source_060.app[0].numRequestsPerSession 759
param **.source_061.numApps 1
param **.source_061.app[0].typename "\"TcpBasicClientApp\""
param **.source_061.app[0].localAddress "\"\""
param **.source_061.app[0].connectAddress "\"sink_061\""
param **.source_061.app[0].connectPort 1100
param **.source_061.app[0].startTime 0s
param **.source_061.app[0].idleInterval 1000s
param **.source_061.app[0].requestLength 1300B
param **.source_061.app[0].replyLength 20B
param **.source_061.app[0].thinkTime 0s
param **.source_061.app[0].numRequestsPerSession 17
param **.source_062.numApps 1
param **.source_062.app[0].typename "\"TcpBasicClientApp\""
param **.source_062.app[0].localAddress "\"\""
param **.source_062.app[0].connectAddress "\"sink_062\""
param **.source_062.app[0].connectPort 1100
param **.source_062.app[0].startTime 0s
param **.source_062.app[0].idleInterval 1000s
param **.source_062.app[0].requestLength 1300B
param **.source_062.app[0].replyLength 20B
param **.source_062.app[0].thinkTime 0s
param **.source_062.app[0].numRequestsPerSession 8
param **.source_063.numApps 1
param **.source_063.app[0].typename "\"TcpBasicClientApp\""
param **.source_063.app[0].localAddress "\"\""
param **.source_063.app[0].connectAddress "\"sink_063\""
param **.source_063.app[0].connectPort 1100
param **.source_063.app[0].startTime 0s
param **.source_063.app[0].idleInterval 1000s
param **.source_063.app[0].requestLength 1300B
param **.source_063.app[0].replyLength 20B
param **.source_063.app[0].thinkTime 0s
param **.source_063.app[0].numRequestsPerSession 1
param **.source_064.numApps 1
param **.source_064.app[0].typename "\"TcpBasicClientApp\""
param **.source_064.app[0].localAddress "\"\""
param **.source_064.app[0].connectAddress "\"sink_064\""
param **.source_064.app[0].connectPort 1100
param **.source_064.app[0].startTime 0s
param **.source_064.app[0].idleInterval 1000s
param **.source_064.app[0].requestLength 1300B
param **.source_064.app[0].replyLength 20B
param **.source_064.app[0].thinkTime 0s
param **.source_064.app[0].numRequestsPerSession 4
param **.source_065.numApps 1
param **.source_065.app[0].typename "\"TcpBasicClientApp\""
param **.source_065.app[0].localAddress "\"\""
param **.source_065.app[0].connectAddress "\"sink_065\""
param **.source_065.app[0].connectPort 1100
param **.source_065.app[0].startTime 0s
param **.source_065.app[0].idleInterval 1000s
param **.source_065.app[0].requestLength 1300B
param **.source_065.app[0].replyLength 20B
param **.source_065.app[0].thinkTime 0s
param **.source_065.app[0].numRequestsPerSession 10
param **.source_066.numApps 1
param **.source_066.app[0].typename "\"TcpBasicClientApp\""
param **.source_066.app[0].localAddress "\"\""
param **.source_066.app[0].connectAddress "\"sink_066\""
param **.source_066.app[0].connectPort 1100
param **.source_066.app[0].startTime 0s
param **.source_066.app[0].idleInterval 1000s
param **.source_066.app[0].requestLength 1300B
param **.source_066.app[0].replyLength 20B
param **.source_066.app[0].thinkTime 0s
param **.source_066.app[0].numRequestsPerSession 2
param **.source_067.numApps 1
param **.source_067.app[0].typename "\"TcpBasicClientApp\""
param **.source_067.app[0].localAddress "\"\""
param **.source_067.app[0].connectAddress "\"sink_067\""
param **.source_067.app[0].connectPort 1100
param **.source_067.app[0].startTime 0s
param **.source_067.app[0].idleInterval 1000s
param **.source_067.app[0].requestLength 1300B
param **.source_067.app[0].replyLength 20B
param **.source_067.app[0].thinkTime 0s
param **.source_067.app[0].numRequestsPerSession 8
param **.source_068.numApps 1
param **.source_068.app[0].typename "\"TcpBasicClientApp\""
param **.source_068.app[0].localAddress "\"\""
param **.source_068.app[0].connectAddress "\"sink_068\""
param **.source_068.app[0].connectPort 1100
param **.source_068.app[0].startTime 0s
param **.source_068.app[0].idleInterval 1000s
param **.source_068.app[0].requestLength 1300B
param **.source_068.app[0].replyLength 20B
param **.source_068.app[0].thinkTime 0s
param **.source_068.app[0].numRequestsPerSession 36
param **.source_069.numApps 1
param **.source_069.app[0].typename "\"TcpBasicClientApp\""
param **.source_069.app[0].localAddress "\"\""
param **.source_069.app[0].connectAddress "\"sink_069\""
param **.source_069.app[0].connectPort 1100
param **.source_069.app[0].startTime 0s
param **.source_069.app[0].idleInterval 1000s
param **.source_069.app[0].requestLength 1300B
param **.source_069.app[0].replyLength 20B
param **.source_069.app[0].thinkTime 0s
param **.source_069.app[0].numRequestsPerSession 44
param **.source_070.numApps 1
param **.source_070.app[0].typename "\"TcpBasicClientApp\""
param **.source_070.app[0].localAddress "\"\""
param **.source_070.app[0].connectAddress "\"sink_070\""
param **.source_070.app[0].connectPort 1100
param **.source_070.app[0].startTime 0s
param **.source_070.app[0].idleInterval 1000s
param **.source_070.app[0].requestLength 1300B
param **.source_070.app[0].replyLength 20B
param **.source_070.app[0].thinkTime 0s
param **.source_070.app[0].numRequestsPerSession 3
param **.source_071.numApps 1
param **.source_071.app[0].typename "\"TcpBasicClientApp\""
param **.source_071.app[0].localAddress "\"\""
param **.source_071.app[0].connectAddress "\"sink_071\""
param **.source_071.app[0].connectPort 1100
param **.source_071.app[0].startTime 0s
param **.source_071.app[0].idleInterval 1000s
param **.source_071.app[0].requestLength 1300B
param **.source_071.app[0].replyLength 20B
param **.source_071.app[0].thinkTime 0s
param **.source_071.app[0].numRequestsPerSession 5
param **.source_072.numApps 1
param **.source_072.app[0].typename "\"TcpBasicClientApp\""
param **.source_072.app[0].localAddress "\"\""
param **.source_072.app[0].connectAddress "\"sink_072\""
param **.source_072.app[0].connectPort 1100
param **.source_072.app[0].startTime 0s
param **.source_072.app[0].idleInterval 1000s
param **.source_072.app[0].requestLength 1300B
param **.source_072.app[0].replyLength 20B
param **.source_072.app[0].thinkTime 0s
param **.source_072.app[0].numRequestsPerSession 9
param **.source_073.numApps 1
param **.source_073.app[0].typename "\"TcpBasicClientApp\""
param **.source_073.app[0].localAddress "\"\""
param **.source_073.app[0].connectAddress "\"sink_073\""
param **.source_073.app[0].connectPort 1100
param **.source_073.app[0].startTime 0s
param **.source_073.app[0].idleInterval 1000s
param **.source_073.app[0].requestLength 1300B
param **.source_073.app[0].replyLength 20B
param **.source_073.app[0].thinkTime 0s
param **.source_073.app[0].numRequestsPerSession 55
param **.source_074.numApps 1
param **.source_074.app[0].typename "\"TcpBasicClientApp\""
param **.source_074.app[0].localAddress "\"\""
param **.source_074.app[0].connectAddress "\"sink_074\""
param **.source_074.app[0].connectPort 1100
param **.source_074.app[0].startTime 0s
param **.source_074.app[0].idleInterval 1000s
param **.source_074.app[0].requestLength 1300B
param **.source_074.app[0].replyLength 20B
param **.source_074.app[0].thinkTime 0s
param **.source_074.app[0].numRequestsPerSession 12
param **.source_075.numApps 1
param **.source_075.app[0].typename "\"TcpBasicClientApp\""
param **.source_075.app[0].localAddress "\"\""
param **.source_075.app[0].connectAddress "\"sink_075\""
param **.source_075.app[0].connectPort 1100
param **.source_075.app[0].startTime 0s
param **.source_075.app[0].idleInterval 1000s
param **.source_075.app[0].requestLength 1300B
param **.source_075.app[0].replyLength 20B
param **.source_075.app[0].thinkTime 0s
param **.source_075.app[0].numRequestsPerSession 125
param **.source_076.numApps 1
param **.source_076.app[0].typename "\"TcpBasicClientApp\""
param **.source_076.app[0].localAddress "\"\""
param **.source_076.app[0].connectAddress "\"sink_076\""
param **.source_076.app[0].connectPort 1100
param **.source_076.app[0].startTime 0s
param **.source_076.app[0].idleInterval 1000s
param **.source_076.app[0].requestLength 1300B
param **.source_076.app[0].replyLength 20B
param **.source_076.app[0].thinkTime 0s
param **.source_076.app[0].numRequestsPerSession 25
param **.source_077.numApps 1
param **.source_077.app[0].typename "\"TcpBasicClientApp\""
param **.source_077.app[0].localAddress "\"\""
param **.source_077.app[0].connectAddress "\"sink_077\""
param **.source_077.app[0].connectPort 1100
param **.source_077.app[0].startTime 0s
param **.source_077.app[0].idleInterval 1000s
param **.source_077.app[0].requestLength 1300B
param **.source_077.app[0].replyLength 20B
param **.source_077.app[0].thinkTime 0s
param **.source_077.app[0].numRequestsPerSession 82
param **.source_078.numApps 1
param **.source_078.app[0].typename "\"TcpBasicClientApp\""
param **.source_078.app[0].localAddress "\"\""
param **.source_078.app[0].connectAddress "\"sink_078\""
param **.source_078.app[0].connectPort 1100
param **.source_078.app[0].startTime 0s
param **.source_078.app[0].idleInterval 1000s
param **.source_078.app[0].requestLength 1300B
param **.source_078.app[0].replyLength 20B
param **.source_078.app[0].thinkTime 0s
param **.source_078.app[0].numRequestsPerSession 2
param **.source_079.numApps 1
param **.source_079.app[0].typename "\"TcpBasicClientApp\""
param **.source_079.app[0].localAddress "\"\""
param **.source_079.app[0].connectAddress "\"sink_079\""
param **.source_079.app[0].connectPort 1100
param **.source_079.app[0].startTime 0s
param **.source_079.app[0].idleInterval 1000s
param **.source_079.app[0].requestLength 1300B
param **.source_079.app[0].replyLength 20B
param **.source_079.app[0].thinkTime 0s
param **.source_079.app[0].numRequestsPerSession 27
param **.source_080.numApps 1
param **.source_080.app[0].typename "\"TcpBasicClientApp\""
param **.source_080.app[0].localAddress "\"\""
param **.source_080.app[0].connectAddress "\"sink_080\""
param **.source_080.app[0].connectPort 1100
param **.source_080.app[0].startTime 0s
param **.source_080.app[0].idleInterval 1000s
param **.source_080.app[0].requestLength 1300B
param **.source_080.app[0].replyLength 20B
param **.source_080.app[0].thinkTime 0s
param **.source_080.app[0].numRequestsPerSession 8
param **.source_081.numApps 1
param **.source_081.app[0].typename "\"TcpBasicClientApp\""
param **.source_081.app[0].localAddress "\"\""
param **.source_081.app[0].connectAddress "\"sink_081\""
param **.source_081.app[0].connectPort 1100
param **.source_081.app[0].startTime 0s
param **.source_081.app[0].idleInterval 1000s
param **.source_081.app[0].requestLength 1300B
param **.source_081.app[0].replyLength 20B
param **.source_081.app[0].thinkTime 0s
param **.source_081.app[0].numRequestsPerSession 65
param **.source_082.numApps 1
param **.source_082.app[0].typename "\"TcpBasicClientApp\""
param **.source_082.app[0].localAddress "\"\""
param **.source_082.app[0].connectAddress "\"sink_082\""
param **.source_082.app[0].connectPort 1100
param **.source_082.app[0].startTime 0s
param **.source_082.app[0].idleInterval 1000s
param **.source_082.app[0].requestLength 1300B
param **.source_082.app[0].replyLength 20B
param **.source_082.app[0].thinkTime 0s
param **.source_082.app[0].numRequestsPerSession 9
param **.source_083.numApps 1
param **.source_083.app[0].typename "\"TcpBasicClientApp\""
param **.source_083.app[0].localAddress "\"\""
param **.source_083.app[0].connectAddress "\"sink_083\""
param **.source_083.app[0].connectPort 1100
param **.source_083.app[0].startTime 0s
param **.source_083.app[0].idleInterval 1000s
param **.source_083.app[0].requestLength 1300B
param **.source_083.app[0].replyLength 20B
param **.source_083.app[0].thinkTime 0s
param **.source_083.app[0].numRequestsPerSession 11
param **.source_084.numApps 1
param **.source_084.app[0].typename "\"TcpBasicClientApp\""
param **.source_084.app[0].localAddress "\"\""
param **.source_084.app[0].connectAddress "\"sink_084\""
param **.source_084.app[0].connectPort 1100
param **.source_084.app[0].startTime 0s
param **.source_084.app[0].idleInterval 1000s
param **.source_084.app[0].requestLength 1300B
param **.source_084.app[0].replyLength 20B
param **.source_084.app[0].thinkTime 0s
param **.source_084.app[0].numRequestsPerSession 180
param **.source_085.numApps 1
param **.source_085.app[0].typename "\"TcpBasicClientApp\""
param **.source_085.app[0].localAddress "\"\""
param **.source_085.app[0].connectAddress "\"sink_085\""
param **.source_085.app[0].connectPort 1100
param **.source_085.app[0].startTime 0s
param **.source_085.app[0].idleInterval 1000s
param **.source_085.app[0].requestLength 1300B
param **.source_085.app[0].replyLength 20B
param **.source_085.app[0].thinkTime 0s
param **.source_085.app[0].numRequestsPerSession 9
param **.source_086.numApps 1
param **.source_086.app[0].typename "\"TcpBasicClientApp\""
param **.source_086.app[0].localAddress "\"\""
param **.source_086.app[0].connectAddress "\"sink_086\""
param **.source_086.app[0].connectPort 1100
param **.source_086.app[0].startTime 0s
param **.source_086.app[0].idleInterval 1000s
param **.source_086.app[0].requestLength 1300B
param **.source_086.app[0].replyLength 20B
param **.source_086.app[0].thinkTime 0s
param **.source_086.app[0].numRequestsPerSession 4
param **.source_087.numApps 1
param **.source_087.app[0].typename "\"TcpBasicClientApp\""
param **.source_087.app[0].localAddress "\"\""
param **.source_087.app[0].connectAddress "\"sink_087\""
param **.source_087.app[0].connectPort 1100
param **.source_087.app[0].startTime 0s
param **.source_087.app[0].idleInterval 1000s
param **.source_087.app[0].requestLength 1300B
param **.source_087.app[0].replyLength 20B
param **.source_087.app[0].thinkTime 0s
param **.source_087.app[0].numRequestsPerSession 23
param **.source_088.numApps 1
param **.source_088.app[0].typename "\"TcpBasicClientApp\""
param **.source_088.app[0].localAddress "\"\""
param **.source_088.app[0].connectAddress "\"sink_088\""
param **.source_088.app[0].connectPort 1100
param **.source_088.app[0].startTime 0s
param **.source_088.app[0].idleInterval 1000s
param **.source_088.app[0].requestLength 1300B
param **.source_088.app[0].replyLength 20B
param **.source_088.app[0].thinkTime 0s
param **.source_088.app[0].numRequestsPerSession 29
param **.source_089.numApps 1
param **.source_089.app[0].typename "\"TcpBasicClientApp\""
param **.source_089.app[0].localAddress "\"\""
param **.source_089.app[0].connectAddress "\"sink_089\""
param **.source_089.app[0].connectPort 1100
param **.source_089.app[0].startTime 0s
param **.source_089.app[0].idleInterval 1000s
param **.source_089.app[0].requestLength 1300B
param **.source_089.app[0].replyLength 20B
param **.source_089.app[0].thinkTime 0s
param **.source_089.app[0].numRequestsPerSession 14
param **.source_090.numApps 1
param **.source_090.app[0].typename "\"TcpBasicClientApp\""
param **.source_090.app[0].localAddress "\"\""
param **.source_090.app[0].connectAddress "\"sink_090\""
param **.source_090.app[0].connectPort 1100
param **.source_090.app[0].startTime 0s
param **.source_090.app[0].idleInterval 1000s
param **.source_090.app[0].requestLength 1300B
param **.source_090.app[0].replyLength 20B
param **.source_090.app[0].thinkTime 0s
param **.source_090.app[0].numRequestsPerSession 24
param **.source_091.numApps 1
param **.source_091.app[0].typename "\"TcpBasicClientApp\""
param **.source_091.app[0].localAddress "\"\""
param **.source_091.app[0].connectAddress "\"sink_091\""
param **.source_091.app[0].connectPort 1100
param **.source_091.app[0].startTime 0s
param **.source_091.app[0].idleInterval 1000s
param **.source_091.app[0].requestLength 1300B
param **.source_091.app[0].replyLength 20B
param **.source_091.app[0].thinkTime 0s
param **.source_091.app[0].numRequestsPerSession 9
param **.source_092.numApps 1
param **.source_092.app[0].typename "\"TcpBasicClientApp\""
param **.source_092.app[0].localAddress "\"\""
param **.source_092.app[0].connectAddress "\"sink_092\""
param **.source_092.app[0].connectPort 1100
param **.source_092.app[0].startTime 0s
param **.source_092.app[0].idleInterval 1000s
param **.source_092.app[0].requestLength 1300B
param **.source_092.app[0].replyLength 20B
param **.source_092.app[0].thinkTime 0s
param **.source_092.app[0].numRequestsPerSession 64
param **.source_093.numApps 1
param **.source_093.app[0].typename "\"TcpBasicClientApp\""
param **.source_093.app[0].localAddress "\"\""
param **.source_093.app[0].connectAddress "\"sink_093\""
param **.source_093.app[0].connectPort 1100
param **.source_093.app[0].startTime 0s
param **.source_093.app[0].idleInterval 1000s
param **.source_093.app[0].requestLength 1300B
param **.source_093.app[0].replyLength 20B
param **.source_093.app[0].thinkTime 0s
param **.source_093.app[0].numRequestsPerSession 88
param **.source_094.numApps 1
param **.source_094.app[0].typename "\"TcpBasicClientApp\""
param **.source_094.app[0].localAddress "\"\""
param **.source_094.app[0].connectAddress "\"sink_094\""
param **.source_094.app[0].connectPort 1100
param **.source_094.app[0].startTime 0s
param **.source_094.app[0].idleInterval 1000s
param **.source_094.app[0].requestLength 1300B
param **.source_094.app[0].replyLength 20B
param **.source_094.app[0].thinkTime 0s
param **.source_094.app[0].numRequestsPerSession 27
param **.source_095.numApps 1
param **.source_095.app[0].typename "\"TcpBasicClientApp\""
param **.source_095.app[0].localAddress "\"\""
[...]
417	310842	0.402095	0.000882
417	321997	0.419471	0.00239
417	332833	0.436967	0.00099
417	346632	0.45925	0.000882
417	358415	0.477788	0.002451
417	368620	0.494388	0.000882
417	380427	0.512745	0.000882
417	392511	0.532682	0.001379
417	403955	0.551604	0.000882
417	414237	0.569646	0.000882
417	422387	0.583716	0.000882
417	432307	0.600387	0.000882
417	442171	0.617207	0.002217
417	450434	0.63162	0.001155
417	460493	0.650049	0.000882
417	468654	0.66599	0.000882
417	479808	0.686132	0.002009
417	488643	0.70257	0.000909
417	496275	0.717549	0.000882
417	504975	0.734277	0.000882
417	512840	0.750024	0.000882
417	521993	0.768006	0.000928
417	530127	0.784131	0.000882
417	538161	0.800308	0.002179
417	546705	0.815645	0.000882
418	45111	0.046401	0.001049
418	73224	0.0786	0.001092
418	96505	0.106719	0.001049
418	118273	0.133393	0.001049
418	138573	0.16002	0.001049
419	45291	0.046614	0.001068
419	82740	0.089891	0.00229
419	110336	0.123641	0.001049
419	136448	0.156692	0.001803
419	160278	0.188376	0.001049
419	183399	0.219927	0.001744
419	204340	0.248459	0.001049
419	222308	0.272486	0.001049
419	236554	0.292378	0.001049
420	45779	0.047034	0.043788
420	79864	0.086254	0.037698
420	106336	0.118457	0.030053
420	130562	0.14936	0.030021
420	152866	0.178775	0.027685
420	170569	0.202708	0.023
420	189233	0.227988	0.02379
420	207855	0.253033	0.024163
420	222562	0.272831	0.018903
420	234892	0.289841	0.016128
420	244885	0.303969	0.012177
420	255902	0.31935	0.013802
420	265562	0.333431	0.013199
420	273090	0.343737	0.009397
420	282458	0.357865	0.012072
420	291144	0.371946	0.013186
420	298842	0.383192	0.00959
420	306683	0.395543	0.010213
420	313024	0.405442	0.009017
420	321330	0.418475	0.011782
420	329539	0.431795	0.01221
420	336589	0.443081	0.010404
420	343444	0.454186	0.00967
421	46800	0.048556	0.001522
421	81536	0.088404	0.00215
421	106901	0.119339	0.000882
421	132022	0.15109	0.00173
421	153804	0.179708	0.000933
421	171704	0.204198	0.00149
421	189858	0.22887	0.000882
421	208662	0.253928	0.000895
421	223211	0.273713	0.000882
421	236213	0.291792	0.001951
421	246233	0.305548	0.001579
421	256569	0.320232	0.000882
421	266194	0.33434	0.000909
421	274328	0.345793	0.002056
421	283059	0.35876	0.000895
421	292444	0.373602	0.001656
421	300286	0.38533	0.002138
421	307307	0.396425	0.000882
421	313851	0.406693	0.001251
421	322066	0.419585	0.00111
421	330020	0.432677	0.000882
421	337317	0.444516	0.001435
421	344034	0.455068	0.000882
422	47337	0.049581	0.046027
422	75771	0.081737	0.030273
422	101574	0.11264	0.029354
422	124037	0.140755	0.024165
422	144159	0.167335	0.025197
422	163443	0.192521	0.023769
422	180726	0.21636	0.022456
422	199202	0.241593	0.022526
422	217154	0.265385	0.021227
422	233482	0.287783	0.021015
422	250865	0.312875	0.021364
422	266646	0.335179	0.020415
422	281291	0.356183	0.019602
422	295912	0.378816	0.019054
422	307573	0.396985	0.016038
422	318192	0.413666	0.015298
422	332022	0.435864	0.018268
422	345961	0.458594	0.020274
422	357790	0.476763	0.016786
422	368216	0.493585	0.015439
422	380890	0.51361	0.017214
422	392437	0.53264	0.016716
422	403534	0.550715	0.014827
422	413194	0.567806	0.015708
422	422200	0.583152	0.013073
422	433787	0.603003	0.015699
422	444062	0.620026	0.01564
422	454032	0.638101	0.015998
422	461970	0.653496	0.014012
422	474110	0.675993	0.018319
422	482806	0.692354	0.014978
422	490471	0.706522	0.012785
422	500330	0.726	0.016999
422	510395	0.744907	0.015471
422	519051	0.762888	0.014863
422	528156	0.780465	0.014845
422	535820	0.795347	0.013499
422	542841	0.809468	0.012368
422	553623	0.8296	0.017035
422	563320	0.849445	0.016897
422	570830	0.864014	0.013144
422	578133	0.87921	0.013813
422	586680	0.896072	0.015371
422	593573	0.910606	0.012053
422	600341	0.924636	0.012647
422	609105	0.942904	0.015132
422	615706	0.95685	0.012563
422	622892	0.972406	0.012818
422	629966	0.987786	0.012911
422	636153	1.00102	0.011851
422	642137	1.014905	0.012502
422	649993	1.032661	0.014887
422	657196	1.048906	0.01367
422	663644	1.062462	0.012173
422	670425	1.077468	0.013623
422	676735	1.091801	0.01293
423	47553	0.049775	0.046631
423	90321	0.098847	0.042475
424	48685	0.051169	0.047821
424	83324	0.090436	0.038051
424	108306	0.121245	0.029593
424	132788	0.152148	0.029687
425	49064	0.051464	0.001883
425	77135	0.083286	0.001549
425	104719	0.11659	0.00395
425	125187	0.142138	0.001383
425	145255	0.168752	0.001417
425	164440	0.193904	0.001383
425	182603	0.219067	0.002707
425	201240	0.244158	0.002565
425	218146	0.266768	0.001383
425	236037	0.291511	0.003728
425	252506	0.314764	0.001889
425	267698	0.336581	0.001402
425	283625	0.359762	0.003579
425	297428	0.380947	0.002131
425	308495	0.398368	0.001383
425	320774	0.417596	0.00393
425	333755	0.43832	0.002456
425	347182	0.459977	0.001383
425	358608	0.478146	0.001383
425	370143	0.496396	0.002811
425	382106	0.515924	0.002314
425	394582	0.535888	0.003248
425	404234	0.552098	0.001383
425	414522	0.570079	0.002273
425	424420	0.587304	0.004152
425	434579	0.604386	0.001383
425	445228	0.622103	0.002077
425	454638	0.639484	0.001383
425	464294	0.657674	0.004178
425	474909	0.677376	0.001383
425	483619	0.693737	0.001383
425	491890	0.709001	0.002479
425	502575	0.729436	0.003436
425	511859	0.748025	0.003118
425	520613	0.76562	0.002732
425	528915	0.781848	0.001383
425	536563	0.7971	0.001753
425	544459	0.812565	0.003097
425	554800	0.832548	0.002948
425	564109	0.85087	0.001425
425	571275	0.865397	0.001383
425	578961	0.880701	0.001491
425	587864	0.898553	0.002481
425	594167	0.911989	0.001383
425	602009	0.927772	0.003136
425	609650	0.944287	0.001383
425	616890	0.959588	0.002738
425	623970	0.974875	0.002469
425	630594	0.989169	0.001383
425	636702	1.002403	0.001383
425	643610	1.017774	0.002869
425	651072	1.035236	0.002575
425	657980	1.050289	0.001383
425	664301	1.063845	0.001383
425	670962	1.078871	0.001403
425	679261	1.096844	0.005043
426	49764	0.052322	0.048717
426	79377	0.085872	0.023869
427	49824	0.052385	0.001216
427	84426	0.091652	0.001216
427	109401	0.122461	0.001216
427	135382	0.155339	0.003191
428	50176	0.052657	0.049462
428	87092	0.094665	0.040419
428	115116	0.129656	0.034109
428	137871	0.159165	0.028627
428	162705	0.191556	0.031509
428	186297	0.223712	0.030957
428	206985	0.251686	0.027085
428	223703	0.274319	0.021444
428	238890	0.295511	0.02031
428	251546	0.313821	0.016724
428	264757	0.332084	0.017381
429	51387	0.054246	0.001589
429	87708	0.095547	0.000882
429	115774	0.130538	0.000882
429	138599	0.160047	0.000882
429	163617	0.192755	0.001199
429	186943	0.224601	0.000889
429	207746	0.252875	0.001189
429	224284	0.275201	0.000882
429	240013	0.297097	0.001586
429	252450	0.314703	0.000882
429	266103	0.334201	0.002117
430	51623	0.054644	0.010639
430	80219	0.086647	0.007698
430	108103	0.121022	0.009776
431	53141	0.056372	0.006597
431	93117	0.102078	0.003231
432	53511	0.056745	0.053448
432	91533	0.100288	0.040032
432	118788	0.134073	0.031881
432	146534	0.170317	0.029864
432	169740	0.201361	0.025458
432	191118	0.230729	0.027325
432	212014	0.258703	0.026591
432	229900	0.282824	0.022738
432	246971	0.30671	0.021966
432	261765	0.327855	0.018371
432	277516	0.350848	0.018186
432	292219	0.37334	0.019334
432	304775	0.392755	0.017183
432	317699	0.412805	0.017331
432	328803	0.430401	0.013971
432	339014	0.447263	0.013195
432	349925	0.464132	0.013552
432	360405	0.481186	0.014116
432	369999	0.496294	0.01099
432	379030	0.510516	0.011851
432	388072	0.525307	0.013408
432	395783	0.53832	0.01163
432	404389	0.552307	0.011655
432	412949	0.56737	0.012811
432	421287	0.581487	0.011454
432	430785	0.598111	0.014008
432	439259	0.612296	0.011434
432	448134	0.62763	0.011216
432	455972	0.641617	0.011196
432	466930	0.662226	0.016145
432	473929	0.675759	0.01215
432	482865	0.69244	0.012327
432	491748	0.708757	0.013112
432	499330	0.723543	0.012029
432	506930	0.73846	0.012238
432	513733	0.752071	0.010428
432	520741	0.765731	0.01007
432	526953	0.777814	0.010338
432	533501	0.790742	0.010316
432	540731	0.80405	0.011256
432	547605	0.817645	0.009666
432	555361	0.833737	0.011845
432	562117	0.847332	0.011185
432	568952	0.860763	0.009947
432	575329	0.873624	0.011091
432	581963	0.886738	0.01153
432	587500	0.897937	0.008783
432	593743	0.910937	0.011066
432	599829	0.923817	0.010689
432	604549	0.934155	0.008917
432	610925	0.94706	0.010509
432	617847	0.96124	0.012196
432	625028	0.976913	0.012255
432	630803	0.98962	0.011002
432	637087	1.003366	0.009942
432	643331	1.017318	0.011239
432	649573	1.031518	0.010836
432	655482	1.04484	0.009589
432	662353	1.060394	0.01239
432	668065	1.072846	0.011069
432	674764	1.086495	0.011337
432	679167	1.096701	0.008823
432	685129	1.109383	0.009727
432	690376	1.12143	0.010637
432	695553	1.133822	0.011001
433	56697	0.060256	0.003511
433	93211	0.102192	0.001904
433	123836	0.140453	0.00638
433	150747	0.175903	0.005586
433	171040	0.203404	0.002043
433	192333	0.232112	0.001383
433	213004	0.260086	0.001383
433	231384	0.284744	0.00192
433	249024	0.309484	0.002774
433	265117	0.332662	0.004807
433	279828	0.354006	0.003158
433	293638	0.375572	0.002232
433	306605	0.395474	0.002719
433	320102	0.41643	0.003625
433	330806	0.434068	0.003667
433	341333	0.45058	0.003317
433	351643	0.46707	0.002938
433	363170	0.485304	0.004118
433	371536	0.498665	0.002371
433	379998	0.511899	0.001383
433	388964	0.52669	0.001383
433	397248	0.540652	0.002332
433	405600	0.554559	0.002252
433	414476	0.570033	0.002663
433	422533	0.584103	0.002616
433	432598	0.600862	0.002751
433	441640	0.616414	0.004118
433	449643	0.630421	0.002791
433	458538	0.646081	0.004464
433	467600	0.663609	0.001383
433	476478	0.680113	0.004354
433	484842	0.695645	0.003205
433	493015	0.711514	0.002757
433	500461	0.726222	0.002679
433	508520	0.741643	0.003183
433	515663	0.755661	0.00359
433	521699	0.767476	0.001745
433	528126	0.780426	0.002612
433	534675	0.792794	0.002052
433	542183	0.807979	0.003929
433	549303	0.821892	0.004247
433	556524	0.836147	0.00241
433	564066	0.850816	0.003484
433	570029	0.862533	0.00177
433	576140	0.875208	0.001584
433	583120	0.889154	0.002416
433	588453	0.899871	0.001934
433	594730	0.913128	0.002191
433	600650	0.925238	0.001421
433	605899	0.936551	0.002396
433	612099	0.949044	0.001984
433	619439	0.964658	0.003418
433	625744	0.978618	0.001705
433	632448	0.993424	0.003804
433	638318	1.006079	0.002713
433	644705	1.020682	0.003364
433	651102	1.035251	0.003733
433	656807	1.048004	0.003164
433	663283	1.061777	0.001383
433	669396	1.075158	0.002312
433	675491	1.087878	0.001383
433	680699	1.099656	0.002955
433	685883	1.110793	0.00141
433	690880	1.122821	0.001391
433	696521	1.13611	0.002288
434	58345	0.062003	0.009681
434	87525	0.095266	0.009394
435	62119	0.066403	0.063004
435	101823	0.112881	0.043146
435	131718	0.150754	0.036715
435	163737	0.192903	0.040346
435	188336	0.226547	0.032595
435	212934	0.26005	0.032454
435	233928	0.288447	0.027348
435	252861	0.315168	0.025672
435	270704	0.340401	0.024184
435	287009	0.364929	0.023479
435	299655	0.384539	0.018561
435	311935	0.404001	0.018196
435	325891	0.425551	0.020501
435	337281	0.444475	0.017875
435	348043	0.46125	0.014499
435	361219	0.482533	0.01982
435	372544	0.500429	0.016847
435	383173	0.517645	0.016167
435	394298	0.535485	0.016791
435	404990	0.553654	0.016152
435	414577	0.570158	0.015391
435	426267	0.589992	0.018384
435	436163	0.606767	0.015099
435	446994	0.625248	0.017059
435	458772	0.646426	0.019049
435	467656	0.663714	0.015901
435	477012	0.681288	0.016525
436	64798	0.069432	0.065631
436	107237	0.119851	0.045528
436	139914	0.162	0.039253
436	167465	0.198432	0.032807
436	194383	0.234911	0.035002
436	218298	0.267067	0.028219
436	237890	0.29407	0.024933
436	256900	0.320744	0.022286
436	273938	0.345131	0.021484
436	289563	0.369158	0.020071
436	305745	0.394196	0.021526
436	318623	0.414293	0.0165
436	330197	0.433189	0.016551
436	342594	0.452792	0.018018
436	355012	0.472549	0.017059
436	367347	0.492065	0.016005
436	377100	0.507587	0.014139
436	389187	0.527168	0.016461
436	400296	0.545786	0.015994
436	412181	0.565976	0.01732
436	423328	0.585654	0.015735
436	434757	0.604721	0.015721
436	444363	0.620707	0.012585
436	455112	0.640223	0.014146
436	465394	0.659532	0.017892
436	475605	0.678547	0.017224
436	485225	0.696653	0.015866
436	494298	0.713926	0.015229
436	502573	0.729436	0.01396
436	511194	0.746669	0.015845
436	518500	0.761641	0.012151
436	527566	0.779161	0.015756
436	535738	0.795247	0.0139
436	543355	0.810675	0.01312
436	551645	0.826107	0.012744
436	559573	0.841709	0.013043
436	568102	0.859278	0.014901
436	576882	0.876646	0.014956
436	585047	0.892945	0.014916
436	591883	0.906936	0.012302
436	599159	0.92247	0.012899
436	606838	0.93829	0.014437
436	615180	0.955303	0.01402
436	623084	0.972872	0.014337
436	631322	0.990967	0.015585
436	638893	1.007654	0.014116
436	644739	1.020713	0.011623
436	650541	1.034333	0.012222
436	658779	1.051696	0.014972
436	665620	1.06727	0.013211
436	673058	1.083753	0.013765
436	679948	1.098162	0.012978
436	687325	1.115314	0.015544
436	692846	1.12834	0.011623
436	699621	1.142889	0.012063
437	65111	0.069735	0.003332
437	102747	0.114039	0.001158
437	133288	0.152557	0.001803
437	164499	0.193952	0.001049
437	188935	0.227596	0.001049
437	213783	0.261099	0.001049
437	234634	0.289496	0.001049
437	253822	0.316217	0.001049
437	271523	0.34145	0.001049
437	287452	0.365978	0.001049
437	300576	0.385805	0.001266
437	312749	0.40505	0.001049
437	326631	0.4266	0.001049
437	338733	0.446751	0.002276
437	349072	0.462713	0.001463
437	361858	0.483582	0.001049
437	373174	0.501478	0.001049
437	383912	0.518694	0.001049
437	395444	0.537502	0.002017
437	405763	0.554767	0.001113
437	415289	0.571608	0.00145
437	427355	0.591668	0.001676
437	436842	0.608189	0.001422
437	447997	0.627377	0.002129
437	459617	0.647813	0.001387
437	468112	0.664763	0.001049
437	477604	0.682337	0.001049
438	69412	0.074323	0.004891
438	109719	0.122747	0.002896
438	142998	0.165625	0.003625
438	168659	0.199909	0.001477
438	197118	0.238848	0.003937
438	219951	0.269137	0.00207
438	241031	0.298458	0.004388
438	258874	0.323647	0.002903
438	276289	0.349087	0.003956
438	291711	0.37267	0.003512
438	308159	0.397793	0.003597
438	320219	0.416638	0.002345
438	331326	0.434774	0.001585
438	344219	0.45549	0.002698
438	357422	0.47606	0.003511
438	368113	0.493448	0.001383
438	379192	0.510707	0.00312
438	390476	0.529792	0.002624
438	402335	0.548656	0.00287
438	414404	0.569919	0.003943
438	425562	0.589	0.003346
438	436784	0.608122	0.003401
438	447444	0.626077	0.00537
438	456021	0.64164	0.001417
438	466426	0.661323	0.001791
438	476794	0.680787	0.00224
438	486630	0.698697	0.002044
438	495446	0.715476	0.00155
438	503395	0.730824	0.001388
438	512556	0.74949	0.002821
438	519416	0.763405	0.001764
438	528626	0.781347	0.002186
438	536828	0.797555	0.002308
438	545056	0.813363	0.002688
438	553155	0.828666	0.002559
438	560647	0.844377	0.002668
438	569468	0.86169	0.002412
438	577573	0.878029	0.001383
438	586107	0.894634	0.001689
438	593205	0.909571	0.002635
438	599867	0.923853	0.001383
438	608333	0.941283	0.002993
438	616342	0.958535	0.003232
438	624317	0.975382	0.00251
438	632567	0.993538	0.002571
438	639369	1.00909	0.001436
438	645365	1.022111	0.001398
438	651910	1.036724	0.002391
438	659768	1.054059	0.002363
438	666761	1.069988	0.002718
438	673873	1.085184	0.001431
438	680749	1.09977	0.001608
438	688120	1.116717	0.001403
438	694431	1.130826	0.002486
438	700775	1.145403	0.002514
439	70042	0.074981	0.071078
439	110704	0.124033	0.046875
439	147590	0.171711	0.044559
439	174004	0.206984	0.030967
439	198272	0.240487	0.031096
439	220598	0.270043	0.028173
439	240866	0.298299	0.024713
439	259973	0.324926	0.024893
439	278381	0.352336	0.024223
439	294893	0.377428	0.023194
439	309424	0.399819	0.018771
439	322226	0.419869	0.017707
439	335892	0.44164	0.019359
439	347101	0.459856	0.014387
439	359615	0.479792	0.017193
439	370908	0.497688	0.016205
439	385730	0.521545	0.02
439	397590	0.541256	0.015197
439	408294	0.55923	0.015565
439	418677	0.577305	0.015548
439	430107	0.59667	0.015836
439	441619	0.616384	0.015636
439	453124	0.635994	0.017958
439	461524	0.652722	0.01229
439	472444	0.673238	0.017986
439	482163	0.691046	0.015429
439	493459	0.712438	0.016907
439	500624	0.726425	0.012604
439	507733	0.740412	0.012604
439	517207	0.758853	0.017049
439	525255	0.77453	0.013999
439	532480	0.789234	0.013057
439	542496	0.80865	0.016017
439	550502	0.824521	0.014488
439	557396	0.837527	0.011623
439	564397	0.851514	0.012604
439	573492	0.869954	0.014195
439	581103	0.885344	0.014007
439	591274	0.905495	0.018746
439	598476	0.921029	0.013118
439	606046	0.936896	0.014258
439	613899	0.952562	0.014269
439	619849	0.965568	0.011623
439	626223	0.979842	0.012891
439	633293	0.994876	0.012143
439	641194	1.012031	0.015772
439	649000	1.030171	0.015428
439	654762	1.043446	0.011892
439	661759	1.059	0.012944
439	670237	1.076887	0.016504
439	677327	1.093447	0.014488
439	684505	1.107895	0.011844
439	691270	1.124124	0.013997
439	697138	1.138051	0.012544
439	703784	1.152855	0.012917
439	708829	1.165875	0.011637
439	714699	1.180797	0.012583
439	720854	1.197257	0.013836
439	725882	1.21029	0.011623
439	731206	1.224051	0.012378
439	735955	1.237429	0.011681
439	740606	1.250482	0.011623
439	745112	1.263488	0.011623
439	750430	1.278309	0.013438
439	755892	1.294746	0.013258
439	761321	1.310238	0.011623
439	765591	1.323261	0.01164
439	770176	1.336328	0.011684
439	775389	1.352773	0.013935
439	779759	1.366632	0.012476
439	784286	1.380932	0.012917
439	788240	1.393938	0.011623
439	792173	1.406971	0.01165
439	796193	1.420837	0.012269
439	800397	1.43515	0.01293
439	804491	1.448949	0.012416
439	809236	1.465111	0.012358
439	813070	1.478357	0.011863
439	816814	1.491363	0.011623
439	821226	1.506556	0.01381
439	824651	1.519643	0.011623
439	828033	1.532649	0.011623
440	72000	0.077158	0.002177
440	113187	0.127152	0.003119
440	150870	0.176017	0.004306
440	175788	0.209391	0.002407
440	199464	0.24187	0.001383
440	223089	0.273586	0.003543
440	242042	0.300033	0.001734
440	261920	0.328113	0.003187
440	280013	0.354234	0.001898
440	297508	0.381048	0.00362
440	310909	0.402162	0.002343
440	323625	0.422281	0.002412
440	337861	0.445469	0.003829
440	348977	0.462599	0.002743
440	360532	0.481483	0.001691
440	373217	0.501545	0.003857
440	388527	0.526059	0.004514
440	399082	0.543665	0.002409
440	409714	0.561757	0.002527
440	420923	0.580834	0.003529
440	432509	0.600748	0.004078
440	442766	0.618036	0.001652
440	455238	0.640432	0.004438
440	462733	0.655252	0.00253
440	473826	0.675617	0.002379
440	484752	0.695531	0.004485
440	494173	0.713821	0.001383
440	501639	0.727808	0.001383
440	508666	0.741804	0.001392
440	517984	0.760531	0.001678
440	526208	0.776177	0.001647
440	534596	0.792633	0.003399
440	543105	0.810033	0.001383
440	551407	0.825904	0.001383
440	558376	0.83891	0.001383
440	566314	0.855759	0.004245
440	574248	0.871337	0.001383
440	581984	0.886749	0.001405
440	592306	0.907911	0.002416
440	599267	0.922638	0.001609
440	606859	0.938293	0.001397
440	614473	0.953945	0.001383
440	620515	0.966951	0.001383
440	627601	0.982733	0.002891
440	634006	0.996259	0.001383
440	642063	1.014743	0.002712
440	649594	1.031554	0.001383
440	656058	1.046056	0.00261
440	662299	1.060383	0.001383
440	671018	1.078959	0.002072
440	678877	1.096051	0.002604
440	685598	1.110127	0.002232
440	691845	1.125507	0.001383
440	697953	1.139938	0.001887
440	704317	1.154238	0.001383
440	709662	1.168214	0.002339
440	715354	1.183421	0.002624
440	721650	1.198667	0.00141
440	726394	1.211673	0.001383
440	731829	1.225748	0.001697
440	736642	1.238859	0.00143
440	741209	1.251865	0.001383
440	745714	1.264871	0.001383
440	751240	1.281488	0.003179
440	757418	1.298615	0.003869
440	761809	1.311621	0.001383
440	766189	1.324644	0.001383
440	771087	1.338838	0.00251
440	775817	1.354156	0.001383
440	780497	1.368015	0.001383
440	784798	1.382315	0.001383
440	788751	1.395321	0.001383
440	792526	1.408568	0.001597
440	796611	1.42222	0.001383
440	800752	1.436533	0.001383
440	805752	1.452753	0.003804
440	809713	1.466494	0.001383
440	813426	1.47974	0.001383
440	817184	1.492746	0.001383
440	821516	1.50802	0.001464
440	825094	1.521026	0.001383
440	828379	1.534032	0.001383

