version 2
run General-0-20220427-21:15:13-22222
attr configname General
attr datetime 20220427-21:15:13
attr experiment General
attr inifile Jellyfish_8_8_7_8__jelly_vary_num_switches_seed2.ini
attr iterationvars ""
attr iterationvarsf ""
attr measurement ""
attr network Jellyfish_8_8_7_8__jelly_vary_num_switches_seed2
attr processid 22222
attr repetition 0
attr replication #0
attr resultdir results
attr runnumber 0
attr seedset 0
param **.ppp[*].ppp.queue.typename "\"DropTailQueue\""
param **.ppp[*].ppp.queue.packetCapacity 100
param *.configurator.config "xmldoc(\"Jellyfish_8_8_7_8__jelly_vary_num_switches_seed2.xml\")"
param **.sink_000.numApps 1
param **.sink_000.app[0].typename "\"TcpGenericServerApp\""
param **.sink_000.app[0].localAddress "\"\""
param **.sink_000.app[0].localPort 1100
param **.sink_000.app[0].replyDelay 0s
param **.sink_001.numApps 1
param **.sink_001.app[0].typename "\"TcpGenericServerApp\""
param **.sink_001.app[0].localAddress "\"\""
param **.sink_001.app[0].localPort 1100
param **.sink_001.app[0].replyDelay 0s
param **.sink_002.numApps 1
param **.sink_002.app[0].typename "\"TcpGenericServerApp\""
param **.sink_002.app[0].localAddress "\"\""
param **.sink_002.app[0].localPort 1100
param **.sink_002.app[0].replyDelay 0s
param **.sink_003.numApps 1
param **.sink_003.app[0].typename "\"TcpGenericServerApp\""
param **.sink_003.app[0].localAddress "\"\""
param **.sink_003.app[0].localPort 1100
param **.sink_003.app[0].replyDelay 0s
param **.sink_004.numApps 1
param **.sink_004.app[0].typename "\"TcpGenericServerApp\""
param **.sink_004.app[0].localAddress "\"\""
param **.sink_004.app[0].localPort 1100
param **.sink_004.app[0].replyDelay 0s
param **.sink_005.numApps 1
param **.sink_005.app[0].typename "\"TcpGenericServerApp\""
param **.sink_005.app[0].localAddress "\"\""
param **.sink_005.app[0].localPort 1100
param **.sink_005.app[0].replyDelay 0s
param **.sink_006.numApps 1
param **.sink_006.app[0].typename "\"TcpGenericServerApp\""
param **.sink_006.app[0].localAddress "\"\""
param **.sink_006.app[0].localPort 1100
param **.sink_006.app[0].replyDelay 0s
param **.sink_007.numApps 1
param **.sink_007.app[0].typename "\"TcpGenericServerApp\""
param **.sink_007.app[0].localAddress "\"\""
param **.sink_007.app[0].localPort 1100
param **.sink_007.app[0].replyDelay 0s
param **.sink_008.numApps 1
param **.sink_008.app[0].typename "\"TcpGenericServerApp\""
param **.sink_008.app[0].localAddress "\"\""
param **.sink_008.app[0].localPort 1100
param **.sink_008.app[0].replyDelay 0s
param **.sink_009.numApps 1
param **.sink_009.app[0].typename "\"TcpGenericServerApp\""
param **.sink_009.app[0].localAddress "\"\""
param **.sink_009.app[0].localPort 1100
param **.sink_009.app[0].replyDelay 0s
param **.sink_010.numApps 1
param **.sink_010.app[0].typename "\"TcpGenericServerApp\""
param **.sink_010.app[0].localAddress "\"\""
param **.sink_010.app[0].localPort 1100
param **.sink_010.app[0].replyDelay 0s
param **.sink_011.numApps 1
param **.sink_011.app[0].typename "\"TcpGenericServerApp\""
param **.sink_011.app[0].localAddress "\"\""
param **.sink_011.app[0].localPort 1100
param **.sink_011.app[0].replyDelay 0s
param **.sink_012.numApps 1
param **.sink_012.app[0].typename "\"TcpGenericServerApp\""
param **.sink_012.app[0].localAddress "\"\""
param **.sink_012.app[0].localPort 1100
param **.sink_012.app[0].replyDelay 0s
param **.sink_013.numApps 1
param **.sink_013.app[0].typename "\"TcpGenericServerApp\""
param **.sink_013.app[0].localAddress "\"\""
param **.sink_013.app[0].localPort 1100
param **.sink_013.app[0].replyDelay 0s
param **.sink_014.numApps 1
param **.sink_014.app[0].typename "\"TcpGenericServerApp\""
param **.sink_014.app[0].localAddress "\"\""
param **.sink_014.app[0].localPort 1100
param **.sink_014.app[0].replyDelay 0s
param **.sink_015.numApps 1
param **.sink_015.app[0].typename "\"TcpGenericServerApp\""
param **.sink_015.app[0].localAddress "\"\""
param **.sink_015.app[0].localPort 1100
param **.sink_015.app[0].replyDelay 0s
param **.sink_016.numApps 1
param **.sink_016.app[0].typename "\"TcpGenericServerApp\""
param **.sink_016.app[0].localAddress "\"\""
param **.sink_016.app[0].localPort 1100
param **.sink_016.app[0].replyDelay 0s
param **.sink_017.numApps 1
param **.sink_017.app[0].typename "\"TcpGenericServerApp\""
param **.sink_017.app[0].localAddress "\"\""
param **.sink_017.app[0].localPort 1100
param **.sink_017.app[0].replyDelay 0s
param **.sink_018.numApps 1
param **.sink_018.app[0].typename "\"TcpGenericServerApp\""
param **.sink_018.app[0].localAddress "\"\""
param **.sink_018.app[0].localPort 1100
param **.sink_018.app[0].replyDelay 0s
param **.sink_019.numApps 1
param **.sink_019.app[0].typename "\"TcpGenericServerApp\""
param **.sink_019.app[0].localAddress "\"\""
param **.sink_019.app[0].localPort 1100
param **.sink_019.app[0].replyDelay 0s
param **.sink_020.numApps 1
param **.sink_020.app[0].typename "\"TcpGenericServerApp\""
param **.sink_020.app[0].localAddress "\"\""
param **.sink_020.app[0].localPort 1100
param **.sink_020.app[0].replyDelay 0s
param **.sink_021.numApps 1
param **.sink_021.app[0].typename "\"TcpGenericServerApp\""
param **.sink_021.app[0].localAddress "\"\""
param **.sink_021.app[0].localPort 1100
param **.sink_021.app[0].replyDelay 0s
param **.sink_022.numApps 1
param **.sink_022.app[0].typename "\"TcpGenericServerApp\""
param **.sink_022.app[0].localAddress "\"\""
param **.sink_022.app[0].localPort 1100
param **.sink_022.app[0].replyDelay 0s
param **.sink_023.numApps 1
param **.sink_023.app[0].typename "\"TcpGenericServerApp\""
param **.sink_023.app[0].localAddress "\"\""
param **.sink_023.app[0].localPort 1100
param **.sink_023.app[0].replyDelay 0s
param **.sink_024.numApps 1
param **.sink_024.app[0].typename "\"TcpGenericServerApp\""
param **.sink_024.app[0].localAddress "\"\""
param **.sink_024.app[0].localPort 1100
param **.sink_024.app[0].replyDelay 0s
param **.sink_025.numApps 1
param **.sink_025.app[0].typename "\"TcpGenericServerApp\""
param **.sink_025.app[0].localAddress "\"\""
param **.sink_025.app[0].localPort 1100
param **.sink_025.app[0].replyDelay 0s
param **.sink_026.numApps 1
param **.sink_026.app[0].typename "\"TcpGenericServerApp\""
param **.sink_026.app[0].localAddress "\"\""
param **.sink_026.app[0].localPort 1100
param **.sink_026.app[0].replyDelay 0s
param **.sink_027.numApps 1
param **.sink_027.app[0].typename "\"TcpGenericServerApp\""
param **.sink_027.app[0].localAddress "\"\""
param **.sink_027.app[0].localPort 1100
param **.sink_027.app[0].replyDelay 0s
param **.sink_028.numApps 1
param **.sink_028.app[0].typename "\"TcpGenericServerApp\""
param **.sink_028.app[0].localAddress "\"\""
param **.sink_028.app[0].localPort 1100
param **.sink_028.app[0].replyDelay 0s
param **.sink_029.numApps 1
param **.sink_029.app[0].typename "\"TcpGenericServerApp\""
param **.sink_029.app[0].localAddress "\"\""
param **.sink_029.app[0].localPort 1100
param **.sink_029.app[0].replyDelay 0s
param **.sink_030.numApps 1
param **.sink_030.app[0].typename "\"TcpGenericServerApp\""
param **.sink_030.app[0].localAddress "\"\""
param **.sink_030.app[0].localPort 1100
param **.sink_030.app[0].replyDelay 0s
param **.sink_031.numApps 1
param **.sink_031.app[0].typename "\"TcpGenericServerApp\""
param **.sink_031.app[0].localAddress "\"\""
param **.sink_031.app[0].localPort 1100
param **.sink_031.app[0].replyDelay 0s
param **.sink_032.numApps 1
param **.sink_032.app[0].typename "\"TcpGenericServerApp\""
param **.sink_032.app[0].localAddress "\"\""
param **.sink_032.app[0].localPort 1100
param **.sink_032.app[0].replyDelay 0s
param **.sink_033.numApps 1
param **.sink_033.app[0].typename "\"TcpGenericServerApp\""
param **.sink_033.app[0].localAddress "\"\""
param **.sink_033.app[0].localPort 1100
param **.sink_033.app[0].replyDelay 0s
param **.sink_034.numApps 1
param **.sink_034.app[0].typename "\"TcpGenericServerApp\""
param **.sink_034.app[0].localAddress "\"\""
param **.sink_034.app[0].localPort 1100
param **.sink_034.app[0].replyDelay 0s
param **.sink_035.numApps 1
param **.sink_035.app[0].typename "\"TcpGenericServerApp\""
param **.sink_035.app[0].localAddress "\"\""
param **.sink_035.app[0].localPort 1100
param **.sink_035.app[0].replyDelay 0s
param **.sink_036.numApps 1
param **.sink_036.app[0].typename "\"TcpGenericServerApp\""
param **.sink_036.app[0].localAddress "\"\""
param **.sink_036.app[0].localPort 1100
param **.sink_036.app[0].replyDelay 0s
param **.sink_037.numApps 1
param **.sink_037.app[0].typename "\"TcpGenericServerApp\""
param **.sink_037.app[0].localAddress "\"\""
param **.sink_037.app[0].localPort 1100
param **.sink_037.app[0].replyDelay 0s
param **.sink_038.numApps 1
param **.sink_038.app[0].typename "\"TcpGenericServerApp\""
param **.sink_038.app[0].localAddress "\"\""
param **.sink_038.app[0].localPort 1100
param **.sink_038.app[0].replyDelay 0s
param **.sink_039.numApps 1
param **.sink_039.app[0].typename "\"TcpGenericServerApp\""
param **.sink_039.app[0].localAddress "\"\""
param **.sink_039.app[0].localPort 1100
param **.sink_039.app[0].replyDelay 0s
param **.sink_040.numApps 1
param **.sink_040.app[0].typename "\"TcpGenericServerApp\""
param **.sink_040.app[0].localAddress "\"\""
param **.sink_040.app[0].localPort 1100
param **.sink_040.app[0].replyDelay 0s
param **.sink_041.numApps 1
param **.sink_041.app[0].typename "\"TcpGenericServerApp\""
param **.sink_041.app[0].localAddress "\"\""
param **.sink_041.app[0].localPort 1100
param **.sink_041.app[0].replyDelay 0s
param **.sink_042.numApps 1
param **.sink_042.app[0].typename "\"TcpGenericServerApp\""
param **.sink_042.app[0].localAddress "\"\""
param **.sink_042.app[0].localPort 1100
param **.sink_042.app[0].replyDelay 0s
param **.sink_043.numApps 1
param **.sink_043.app[0].typename "\"TcpGenericServerApp\""
param **.sink_043.app[0].localAddress "\"\""
param **.sink_043.app[0].localPort 1100
param **.sink_043.app[0].replyDelay 0s
param **.sink_044.numApps 1
param **.sink_044.app[0].typename "\"TcpGenericServerApp\""
param **.sink_044.app[0].localAddress "\"\""
param **.sink_044.app[0].localPort 1100
param **.sink_044.app[0].replyDelay 0s
param **.sink_045.numApps 1
param **.sink_045.app[0].typename "\"TcpGenericServerApp\""
param **.sink_045.app[0].localAddress "\"\""
param **.sink_045.app[0].localPort 1100
param **.sink_045.app[0].replyDelay 0s
param **.sink_046.numApps 1
param **.sink_046.app[0].typename "\"TcpGenericServerApp\""
param **.sink_046.app[0].localAddress "\"\""
param **.sink_046.app[0].localPort 1100
param **.sink_046.app[0].replyDelay 0s
param **.sink_047.numApps 1
param **.sink_047.app[0].typename "\"TcpGenericServerApp\""
param **.sink_047.app[0].localAddress "\"\""
param **.sink_047.app[0].localPort 1100
param **.sink_047.app[0].replyDelay 0s
param **.sink_048.numApps 1
param **.sink_048.app[0].typename "\"TcpGenericServerApp\""
param **.sink_048.app[0].localAddress "\"\""
param **.sink_048.app[0].localPort 1100
param **.sink_048.app[0].replyDelay 0s
param **.sink_049.numApps 1
param **.sink_049.app[0].typename "\"TcpGenericServerApp\""
param **.sink_049.app[0].localAddress "\"\""
param **.sink_049.app[0].localPort 1100
param **.sink_049.app[0].replyDelay 0s
param **.sink_050.numApps 1
param **.sink_050.app[0].typename "\"TcpGenericServerApp\""
param **.sink_050.app[0].localAddress "\"\""
param **.sink_050.app[0].localPort 1100
param **.sink_050.app[0].replyDelay 0s
param **.sink_051.numApps 1
param **.sink_051.app[0].typename "\"TcpGenericServerApp\""
param **.sink_051.app[0].localAddress "\"\""
param **.sink_051.app[0].localPort 1100
param **.sink_051.app[0].replyDelay 0s
param **.sink_052.numApps 1
param **.sink_052.app[0].typename "\"TcpGenericServerApp\""
param **.sink_052.app[0].localAddress "\"\""
param **.sink_052.app[0].localPort 1100
param **.sink_052.app[0].replyDelay 0s
param **.sink_053.numApps 1
param **.sink_053.app[0].typename "\"TcpGenericServerApp\""
param **.sink_053.app[0].localAddress "\"\""
param **.sink_053.app[0].localPort 1100
param **.sink_053.app[0].replyDelay 0s
param **.sink_054.numApps 1
param **.sink_054.app[0].typename "\"TcpGenericServerApp\""
param **.sink_054.app[0].localAddress "\"\""
param **.sink_054.app[0].localPort 1100
param **.sink_054.app[0].replyDelay 0s
param **.sink_055.numApps 1
param **.sink_055.app[0].typename "\"TcpGenericServerApp\""
param **.sink_055.app[0].localAddress "\"\""
param **.sink_055.app[0].localPort 1100
param **.sink_055.app[0].replyDelay 0s
param **.sink_056.numApps 1
param **.sink_056.app[0].typename "\"TcpGenericServerApp\""
param **.sink_056.app[0].localAddress "\"\""
param **.sink_056.app[0].localPort 1100
param **.sink_056.app[0].replyDelay 0s
param **.sink_057.numApps 1
param **.sink_057.app[0].typename "\"TcpGenericServerApp\""
param **.sink_057.app[0].localAddress "\"\""
param **.sink_057.app[0].localPort 1100
param **.sink_057.app[0].replyDelay 0s
param **.sink_058.numApps 1
param **.sink_058.app[0].typename "\"TcpGenericServerApp\""
param **.sink_058.app[0].localAddress "\"\""
param **.sink_058.app[0].localPort 1100
param **.sink_058.app[0].replyDelay 0s
param **.sink_059.numApps 1
param **.sink_059.app[0].typename "\"TcpGenericServerApp\""
param **.sink_059.app[0].localAddress "\"\""
param **.sink_059.app[0].localPort 1100
param **.sink_059.app[0].replyDelay 0s
param **.sink_060.numApps 1
param **.sink_060.app[0].typename "\"TcpGenericServerApp\""
param **.sink_060.app[0].localAddress "\"\""
param **.sink_060.app[0].localPort 1100
param **.sink_060.app[0].replyDelay 0s
param **.sink_061.numApps 1
param **.sink_061.app[0].typename "\"TcpGenericServerApp\""
param **.sink_061.app[0].localAddress "\"\""
param **.sink_061.app[0].localPort 1100
param **.sink_061.app[0].replyDelay 0s
param **.sink_062.numApps 1
param **.sink_062.app[0].typename "\"TcpGenericServerApp\""
param **.sink_062.app[0].localAddress "\"\""
param **.sink_062.app[0].localPort 1100
param **.sink_062.app[0].replyDelay 0s
param **.source_000.numApps 1
param **.source_000.app[0].typename "\"TcpBasicClientApp\""
param **.source_000.app[0].localAddress "\"\""
param **.source_000.app[0].connectAddress "\"sink_000\""
param **.source_000.app[0].connectPort 1100
param **.source_000.app[0].startTime 0s
param **.source_000.app[0].idleInterval 1000s
param **.source_000.app[0].requestLength 1300B
param **.source_000.app[0].replyLength 20B
param **.source_000.app[0].thinkTime 0s
param **.source_000.app[0].numRequestsPerSession 3
param **.source_001.numApps 1
param **.source_001.app[0].typename "\"TcpBasicClientApp\""
param **.source_001.app[0].localAddress "\"\""
param **.source_001.app[0].connectAddress "\"sink_001\""
param **.source_001.app[0].connectPort 1100
param **.source_001.app[0].startTime 0s
param **.source_001.app[0].idleInterval 1000s
param **.source_001.app[0].requestLength 1300B
param **.source_001.app[0].replyLength 20B
param **.source_001.app[0].thinkTime 0s
param **.source_001.app[0].numRequestsPerSession 7
param **.source_002.numApps 1
param **.source_002.app[0].typename "\"TcpBasicClientApp\""
param **.source_002.app[0].localAddress "\"\""
param **.source_002.app[0].connectAddress "\"sink_002\""
param **.source_002.app[0].connectPort 1100
param **.source_002.app[0].startTime 0s
param **.source_002.app[0].idleInterval 1000s
param **.source_002.app[0].requestLength 1300B
param **.source_002.app[0].replyLength 20B
param **.source_002.app[0].thinkTime 0s
param **.source_002.app[0].numRequestsPerSession 336
param **.source_003.numApps 1
param **.source_003.app[0].typename "\"TcpBasicClientApp\""
param **.source_003.app[0].localAddress "\"\""
param **.source_003.app[0].connectAddress "\"sink_003\""
param **.source_003.app[0].connectPort 1100
param **.source_003.app[0].startTime 0s
param **.source_003.app[0].idleInterval 1000s
param **.source_003.app[0].requestLength 1300B
param **.source_003.app[0].replyLength 20B
param **.source_003.app[0].thinkTime 0s
param **.source_003.app[0].numRequestsPerSession 2
param **.source_004.numApps 1
param **.source_004.app[0].typename "\"TcpBasicClientApp\""
param **.source_004.app[0].localAddress "\"\""
param **.source_004.app[0].connectAddress "\"sink_004\""
param **.source_004.app[0].connectPort 1100
param **.source_004.app[0].startTime 0s
param **.source_004.app[0].idleInterval 1000s
param **.source_004.app[0].requestLength 1300B
param **.source_004.app[0].replyLength 20B
param **.source_004.app[0].thinkTime 0s
param **.source_004.app[0].numRequestsPerSession 25
param **.source_005.numApps 1
param **.source_005.app[0].typename "\"TcpBasicClientApp\""
param **.source_005.app[0].localAddress "\"\""
param **.source_005.app[0].connectAddress "\"sink_005\""
param **.source_005.app[0].connectPort 1100
param **.source_005.app[0].startTime 0s
param **.source_005.app[0].idleInterval 1000s
param **.source_005.app[0].requestLength 1300B
param **.source_005.app[0].replyLength 20B
param **.source_005.app[0].thinkTime 0s
param **.source_005.app[0].numRequestsPerSession 1
param **.source_006.numApps 1
param **.source_006.app[0].typename "\"TcpBasicClientApp\""
param **.source_006.app[0].localAddress "\"\""
param **.source_006.app[0].connectAddress "\"sink_006\""
param **.source_006.app[0].connectPort 1100
param **.source_006.app[0].startTime 0s
param **.source_006.app[0].idleInterval 1000s
param **.source_006.app[0].requestLength 1300B
param **.source_006.app[0].replyLength 20B
param **.source_006.app[0].thinkTime 0s
param **.source_006.app[0].numRequestsPerSession 28
param **.source_007.numApps 1
param **.source_007.app[0].typename "\"TcpBasicClientApp\""
param **.source_007.app[0].localAddress "\"\""
param **.source_007.app[0].connectAddress "\"sink_007\""
param **.source_007.app[0].connectPort 1100
param **.source_007.app[0].startTime 0s
param **.source_007.app[0].idleInterval 1000s
param **.source_007.app[0].requestLength 1300B
param **.source_007.app[0].replyLength 20B
param **.source_007.app[0].thinkTime 0s
param **.source_007.app[0].numRequestsPerSession 370
param **.source_008.numApps 1
param **.source_008.app[0].typename "\"TcpBasicClientApp\""
param **.source_008.app[0].localAddress "\"\""
param **.source_008.app[0].connectAddress "\"sink_008\""
param **.source_008.app[0].connectPort 1100
param **.source_008.app[0].startTime 0s
param **.source_008.app[0].idleInterval 1000s
param **.source_008.app[0].requestLength 1300B
param **.source_008.app[0].replyLength 20B
param **.source_008.app[0].thinkTime 0s
param **.source_008.app[0].numRequestsPerSession 9
param **.source_009.numApps 1
param **.source_009.app[0].typename "\"TcpBasicClientApp\""
param **.source_009.app[0].localAddress "\"\""
param **.source_009.app[0].connectAddress "\"sink_009\""
param **.source_009.app[0].connectPort 1100
param **.source_009.app[0].startTime 0s
param **.source_009.app[0].idleInterval 1000s
param **.source_009.app[0].requestLength 1300B
param **.source_009.app[0].replyLength 20B
param **.source_009.app[0].thinkTime 0s
param **.source_009.app[0].numRequestsPerSession 27
param **.source_010.numApps 1
param **.source_010.app[0].typename "\"TcpBasicClientApp\""
param **.source_010.app[0].localAddress "\"\""
param **.source_010.app[0].connectAddress "\"sink_010\""
param **.source_010.app[0].connectPort 1100
param **.source_010.app[0].startTime 0s
param **.source_010.app[0].idleInterval 1000s
param **.source_010.app[0].requestLength 1300B
param **.source_010.app[0].replyLength 20B
param **.source_010.app[0].thinkTime 0s
param **.source_010.app[0].numRequestsPerSession 2
param **.source_011.numApps 1
param **.source_011.app[0].typename "\"TcpBasicClientApp\""
param **.source_011.app[0].localAddress "\"\""
param **.source_011.app[0].connectAddress "\"sink_011\""
param **.source_011.app[0].connectPort 1100
param **.source_011.app[0].startTime 0s
param **.source_011.app[0].idleInterval 1000s
param **.source_011.app[0].requestLength 1300B
param **.source_011.app[0].replyLength 20B
param **.source_011.app[0].thinkTime 0s
param **.source_011.app[0].numRequestsPerSession 8
param **.source_012.numApps 1
param **.source_012.app[0].typename "\"TcpBasicClientApp\""
param **.source_012.app[0].localAddress "\"\""
param **.source_012.app[0].connectAddress "\"sink_012\""
param **.source_012.app[0].connectPort 1100
param **.source_012.app[0].startTime 0s
param **.source_012.app[0].idleInterval 1000s
param **.source_012.app[0].requestLength 1300B
param **.source_012.app[0].replyLength 20B
param **.source_012.app[0].thinkTime 0s
param **.source_012.app[0].numRequestsPerSession 116
param **.source_013.numApps 1
param **.source_013.app[0].typename "\"TcpBasicClientApp\""
param **.source_013.app[0].localAddress "\"\""
param **.source_013.app[0].connectAddress "\"sink_013\""
param **.source_013.app[0].connectPort 1100
param **.source_013.app[0].startTime 0s
param **.source_013.app[0].idleInterval 1000s
param **.source_013.app[0].requestLength 1300B
param **.source_013.app[0].replyLength 20B
param **.source_013.app[0].thinkTime 0s
param **.source_013.app[0].numRequestsPerSession 2
param **.source_014.numApps 1
param **.source_014.app[0].typename "\"TcpBasicClientApp\""
param **.source_014.app[0].localAddress "\"\""
param **.source_014.app[0].connectAddress "\"sink_014\""
param **.source_014.app[0].connectPort 1100
param **.source_014.app[0].startTime 0s
param **.source_014.app[0].idleInterval 1000s
param **.source_014.app[0].requestLength 1300B
param **.source_014.app[0].replyLength 20B
param **.source_014.app[0].thinkTime 0s
param **.source_014.app[0].numRequestsPerSession 8
param **.source_015.numApps 1
param **.source_015.app[0].typename "\"TcpBasicClientApp\""
param **.source_015.app[0].localAddress "\"\""
param **.source_015.app[0].connectAddress "\"sink_015\""
param **.source_015.app[0].connectPort 1100
param **.source_015.app[0].startTime 0s
param **.source_015.app[0].idleInterval 1000s
param **.source_015.app[0].requestLength 1300B
param **.source_015.app[0].replyLength 20B
param **.source_015.app[0].thinkTime 0s
param **.source_015.app[0].numRequestsPerSession 2
param **.source_016.numApps 1
param **.source_016.app[0].typename "\"TcpBasicClientApp\""
param **.source_016.app[0].localAddress "\"\""
param **.source_016.app[0].connectAddress "\"sink_016\""
param **.source_016.app[0].connectPort 1100
param **.source_016.app[0].startTime 0s
param **.source_016.app[0].idleInterval 1000s
param **.source_016.app[0].requestLength 1300B
param **.source_016.app[0].replyLength 20B
param **.source_016.app[0].thinkTime 0s
param **.source_016.app[0].numRequestsPerSession 6
param **.source_017.numApps 1
param **.source_017.app[0].typename "\"TcpBasicClientApp\""
param **.source_017.app[0].localAddress "\"\""
param **.source_017.app[0].connectAddress "\"sink_017\""
param **.source_017.app[0].connectPort 1100
param **.source_017.app[0].startTime 0s
param **.source_017.app[0].idleInterval 1000s
param **.source_017.app[0].requestLength 1300B
param **.source_017.app[0].replyLength 20B
param **.source_017.app[0].thinkTime 0s
param **.source_017.app[0].numRequestsPerSession 14
param **.source_018.numApps 1
param **.source_018.app[0].typename "\"TcpBasicClientApp\""
param **.source_018.app[0].localAddress "\"\""
param **.source_018.app[0].connectAddress "\"sink_018\""
param **.source_018.app[0].connectPort 1100
param **.source_018.app[0].startTime 0s
param **.source_018.app[0].idleInterval 1000s
param **.source_018.app[0].requestLength 1300B
param **.source_018.app[0].replyLength 20B
param **.source_018.app[0].thinkTime 0s
param **.source_018.app[0].numRequestsPerSession 1
param **.source_019.numApps 1
param **.source_019.app[0].typename "\"TcpBasicClientApp\""
param **.source_019.app[0].localAddress "\"\""
param **.source_019.app[0].connectAddress "\"sink_019\""
param **.source_019.app[0].connectPort 1100
param **.source_019.app[0].startTime 0s
param **.source_019.app[0].idleInterval 1000s
param **.source_019.app[0].requestLength 1300B
param **.source_019.app[0].replyLength 20B
param **.source_019.app[0].thinkTime 0s
param **.source_019.app[0].numRequestsPerSession 4
param **.source_020.numApps 1
param **.source_020.app[0].typename "\"TcpBasicClientApp\""
param **.source_020.app[0].localAddress "\"\""
param **.source_020.app[0].connectAddress "\"sink_020\""
param **.source_020.app[0].connectPort 1100
param **.source_020.app[0].startTime 0s
param **.source_020.app[0].idleInterval 1000s
param **.source_020.app[0].requestLength 1300B
param **.source_020.app[0].replyLength 20B
param **.source_020.app[0].thinkTime 0s
param **.source_020.app[0].numRequestsPerSession 5
param **.source_021.numApps 1
param **.source_021.app[0].typename "\"TcpBasicClientApp\""
param **.source_021.app[0].localAddress "\"\""
param **.source_021.app[0].connectAddress "\"sink_021\""
param **.source_021.app[0].connectPort 1100
param **.source_021.app[0].startTime 0s
param **.source_021.app[0].idleInterval 1000s
param **.source_021.app[0].requestLength 1300B
param **.source_021.app[0].replyLength 20B
param **.source_021.app[0].thinkTime 0s
param **.source_021.app[0].numRequestsPerSession 2
param **.source_022.numApps 1
param **.source_022.app[0].typename "\"TcpBasicClientApp\""
param **.source_022.app[0].localAddress "\"\""
param **.source_022.app[0].connectAddress "\"sink_022\""
param **.source_022.app[0].connectPort 1100
param **.source_022.app[0].startTime 0s
param **.source_022.app[0].idleInterval 1000s
param **.source_022.app[0].requestLength 1300B
param **.source_022.app[0].replyLength 20B
param **.source_022.app[0].thinkTime 0s
param **.source_022.app[0].numRequestsPerSession 6
param **.source_023.numApps 1
param **.source_023.app[0].typename "\"TcpBasicClientApp\""
param **.source_023.app[0].localAddress "\"\""
param **.source_023.app[0].connectAddress "\"sink_023\""
param **.source_023.app[0].connectPort 1100
param **.source_023.app[0].startTime 0s
param **.source_023.app[0].idleInterval 1000s
param **.source_023.app[0].requestLength 1300B
param **.source_023.app[0].replyLength 20B
param **.source_023.app[0].thinkTime 0s
param **.source_023.app[0].numRequestsPerSession 5
param **.source_024.numApps 1
param **.source_024.app[0].typename "\"TcpBasicClientApp\""
param **.source_024.app[0].localAddress "\"\""
param **.source_024.app[0].connectAddress "\"sink_024\""
param **.source_024.app[0].connectPort 1100
param **.source_024.app[0].startTime 0s
param **.source_024.app[0].idleInterval 1000s
param **.source_024.app[0].requestLength 1300B
param **.source_024.app[0].replyLength 20B
param **.source_024.app[0].thinkTime 0s
param **.source_024.app[0].numRequestsPerSession 561
param **.source_025.numApps 1
param **.source_025.app[0].typename "\"TcpBasicClientApp\""
param **.source_025.app[0].localAddress "\"\""
param **.source_025.app[0].connectAddress "\"sink_025\""
param **.source_025.app[0].connectPort 1100
param **.source_025.app[0].startTime 0s
param **.source_025.app[0].idleInterval 1000s
param **.source_025.app[0].requestLength 1300B
param **.source_025.app[0].replyLength 20B
param **.source_025.app[0].thinkTime 0s
param **.source_025.app[0].numRequestsPerSession 10
param **.source_026.numApps 1
param **.source_026.app[0].typename "\"TcpBasicClientApp\""
param **.source_026.app[0].localAddress "\"\""
param **.source_026.app[0].connectAddress "\"sink_026\""
param **.source_026.app[0].connectPort 1100
param **.source_026.app[0].startTime 0s
param **.source_026.app[0].idleInterval 1000s
param **.source_026.app[0].requestLength 1300B
param **.source_026.app[0].replyLength 20B
param **.source_026.app[0].thinkTime 0s
param **.source_026.app[0].numRequestsPerSession 19
param **.source_027.numApps 1
param **.source_027.app[0].typename "\"TcpBasicClientApp\""
param **.source_027.app[0].localAddress "\"\""
param **.source_027.app[0].connectAddress "\"sink_027\""
param **.source_027.app[0].connectPort 1100
param **.source_027.app[0].startTime 0s
param **.source_027.app[0].idleInterval 1000s
param **.source_027.app[0].requestLength 1300B
param **.source_027.app[0].replyLength 20B
param **.source_027.app[0].thinkTime 0s
param **.source_027.app[0].numRequestsPerSession 177
param **.source_028.numApps 1
param **.source_028.app[0].typename "\"TcpBasicClientApp\""
param **.source_028.app[0].localAddress "\"\""
param **.source_028.app[0].connectAddress "\"sink_028\""
param **.source_028.app[0].connectPort 1100
param **.source_028.app[0].startTime 0s
param **.source_028.app[0].idleInterval 1000s
param **.source_028.app[0].requestLength 1300B
param **.source_028.app[0].replyLength 20B
param **.source_028.app[0].thinkTime 0s
param **.source_028.app[0].numRequestsPerSession 25
param **.source_029.numApps 1
param **.source_029.app[0].typename "\"TcpBasicClientApp\""
param **.source_029.app[0].localAddress "\"\""
param **.source_029.app[0].connectAddress "\"sink_029\""
param **.source_029.app[0].connectPort 1100
param **.source_029.app[0].startTime 0s
param **.source_029.app[0].idleInterval 1000s
param **.source_029.app[0].requestLength 1300B
param **.source_029.app[0].replyLength 20B
param **.source_029.app[0].thinkTime 0s
param **.source_029.app[0].numRequestsPerSession 2
param **.source_030.numApps 1
param **.source_030.app[0].typename "\"TcpBasicClientApp\""
param **.source_030.app[0].localAddress "\"\""
param **.source_030.app[0].connectAddress "\"sink_030\""
param **.source_030.app[0].connectPort 1100
param **.source_030.app[0].startTime 0s
param **.source_030.app[0].idleInterval 1000s
param **.source_030.app[0].requestLength 1300B
param **.source_030.app[0].replyLength 20B
param **.source_030.app[0].thinkTime 0s
param **.source_030.app[0].numRequestsPerSession 8
param **.source_031.numApps 1
param **.source_031.app[0].typename "\"TcpBasicClientApp\""
param **.source_031.app[0].localAddress "\"\""
param **.source_031.app[0].connectAddress "\"sink_031\""
param **.source_031.app[0].connectPort 1100
param **.source_031.app[0].startTime 0s
param **.source_031.app[0].idleInterval 1000s
param **.source_031.app[0].requestLength 1300B
param **.source_031.app[0].replyLength 20B
param **.source_031.app[0].thinkTime 0s
param **.source_031.app[0].numRequestsPerSession 27
param **.source_032.numApps 1
param **.source_032.app[0].typename "\"TcpBasicClientApp\""
param **.source_032.app[0].localAddress "\"\""
param **.source_032.app[0].connectAddress "\"sink_032\""
param **.source_032.app[0].connectPort 1100
param **.source_032.app[0].startTime 0s
param **.source_032.app[0].idleInterval 1000s
param **.source_032.app[0].requestLength 1300B
param **.source_032.app[0].replyLength 20B
param **.source_032.app[0].thinkTime 0s
param **.source_032.app[0].numRequestsPerSession 4
param **.source_033.numApps 1
param **.source_033.app[0].typename "\"TcpBasicClientApp\""
param **.source_033.app[0].localAddress "\"\""
param **.source_033.app[0].connectAddress "\"sink_033\""
param **.source_033.app[0].connectPort 1100
param **.source_033.app[0].startTime 0s
param **.source_033.app[0].idleInterval 1000s
param **.source_033.app[0].requestLength 1300B
param **.source_033.app[0].replyLength 20B
param **.source_033.app[0].thinkTime 0s
param **.source_033.app[0].numRequestsPerSession 46
param **.source_034.numApps 1
param **.source_034.app[0].typename "\"TcpBasicClientApp\""
param **.source_034.app[0].localAddress "\"\""
param **.source_034.app[0].connectAddress "\"sink_034\""
param **.source_034.app[0].connectPort 1100
param **.source_034.app[0].startTime 0s
param **.source_034.app[0].idleInterval 1000s
param **.source_034.app[0].requestLength 1300B
param **.source_034.app[0].replyLength 20B
param **.source_034.app[0].thinkTime 0s
param **.source_034.app[0].numRequestsPerSession 415
param **.source_035.numApps 1
param **.source_035.app[0].typename "\"TcpBasicClientApp\""
param **.source_035.app[0].localAddress "\"\""
param **.source_035.app[0].connectAddress "\"sink_035\""
param **.source_035.app[0].connectPort 1100
param **.source_035.app[0].startTime 0s
param **.source_035.app[0].idleInterval 1000s
param **.source_035.app[0].requestLength 1300B
param **.source_035.app[0].replyLength 20B
param **.source_035.app[0].thinkTime 0s
param **.source_035.app[0].numRequestsPerSession 42
param **.source_036.numApps 1
param **.source_036.app[0].typename "\"TcpBasicClientApp\""
param **.source_036.app[0].localAddress "\"\""
param **.source_036.app[0].connectAddress "\"sink_036\""
param **.source_036.app[0].connectPort 1100
param **.source_036.app[0].startTime 0s
param **.source_036.app[0].idleInterval 1000s
param **.source_036.app[0].requestLength 1300B
param **.source_036.app[0].replyLength 20B
param **.source_036.app[0].thinkTime 0s
param **.source_036.app[0].numRequestsPerSession 4
param **.source_037.numApps 1
param **.source_037.app[0].typename "\"TcpBasicClientApp\""
param **.source_037.app[0].localAddress "\"\""
param **.source_037.app[0].connectAddress "\"sink_037\""
param **.source_037.app[0].connectPort 1100
param **.source_037.app[0].startTime 0s
param **.source_037.app[0].idleInterval 1000s
param **.source_037.app[0].requestLength 1300B
param **.source_037.app[0].replyLength 20B
param **.source_037.app[0].thinkTime 0s
param **.source_037.app[0].numRequestsPerSession 32
param **.source_038.numApps 1
param **.source_038.app[0].typename "\"TcpBasicClientApp\""
param **.source_038.app[0].localAddress "\"\""
param **.source_038.app[0].connectAddress "\"sink_038\""
param **.source_038.app[0].connectPort 1100
param **.source_038.app[0].startTime 0s
param **.source_038.app[0].idleInterval 1000s
param **.source_038.app[0].requestLength 1300B
param **.source_038.app[0].replyLength 20B
param **.source_038.app[0].thinkTime 0s
param **.source_038.app[0].numRequestsPerSession 9
param **.source_039.numApps 1
param **.source_039.app[0].typename "\"TcpBasicClientApp\""
param **.source_039.app[0].localAddress "\"\""
param **.source_039.app[0].connectAddress "\"sink_039\""
param **.source_039.app[0].connectPort 1100
param **.source_039.app[0].startTime 0s
param **.source_039.app[0].idleInterval 1000s
param **.source_039.app[0].requestLength 1300B
param **.source_039.app[0].replyLength 20B
param **.source_039.app[0].thinkTime 0s
param **.source_039.app[0].numRequestsPerSession 2
param **.source_040.numApps 1
param **.source_040.app[0].typename "\"TcpBasicClientApp\""
param **.source_040.app[0].localAddress "\"\""
param **.source_040.app[0].connectAddress "\"sink_040\""
param **.source_040.app[0].connectPort 1100
param **.source_040.app[0].startTime 0s
param **.source_040.app[0].idleInterval 1000s
param **.source_040.app[0].requestLength 1300B
param **.source_040.app[0].replyLength 20B
param **.source_040.app[0].thinkTime 0s
param **.source_040.app[0].numRequestsPerSession 10
param **.source_041.numApps 1
param **.source_041.app[0].typename "\"TcpBasicClientApp\""
param **.source_041.app[0].localAddress "\"\""
param **.source_041.app[0].connectAddress "\"sink_041\""
param **.source_041.app[0].connectPort 1100
param **.source_041.app[0].startTime 0s
param **.source_041.app[0].idleInterval 1000s
param **.source_041.app[0].requestLength 1300B
param **.source_041.app[0].replyLength 20B
param **.source_041.app[0].thinkTime 0s
param **.source_041.app[0].numRequestsPerSession 77
param **.source_042.numApps 1
param **.source_042.app[0].typename "\"TcpBasicClientApp\""
param **.source_042.app[0].localAddress "\"\""
param **.source_042.app[0].connectAddress "\"sink_042\""
param **.source_042.app[0].connectPort 1100
param **.source_042.app[0].startTime 0s
param **.source_042.app[0].idleInterval 1000s
param **.source_042.app[0].requestLength 1300B
param **.source_042.app[0].replyLength 20B
param **.source_042.app[0].thinkTime 0s
param **.source_042.app[0].numRequestsPerSession 4
param **.source_043.numApps 1
param **.source_043.app[0].typename "\"TcpBasicClientApp\""
param **.source_043.app[0].localAddress "\"\""
param **.source_043.app[0].connectAddress "\"sink_043\""
param **.source_043.app[0].connectPort 1100
param **.source_043.app[0].startTime 0s
param **.source_043.app[0].idleInterval 1000s
param **.source_043.app[0].requestLength 1300B
param **.source_043.app[0].replyLength 20B
param **.source_043.app[0].thinkTime 0s
param **.source_043.app[0].numRequestsPerSession 4
param **.source_044.numApps 1
param **.source_044.app[0].typename "\"TcpBasicClientApp\""
param **.source_044.app[0].localAddress "\"\""
param **.source_044.app[0].connectAddress "\"sink_044\""
param **.source_044.app[0].connectPort 1100
param **.source_044.app[0].startTime 0s
param **.source_044.app[0].idleInterval 1000s
param **.source_044.app[0].requestLength 1300B
param **.source_044.app[0].replyLength 20B
param **.source_044.app[0].thinkTime 0s
param **.source_044.app[0].numRequestsPerSession 7
param **.source_045.numApps 1
param **.source_045.app[0].typename "\"TcpBasicClientApp\""
param **.source_045.app[0].localAddress "\"\""
param **.source_045.app[0].connectAddress "\"sink_045\""
param **.source_045.app[0].connectPort 1100
param **.source_045.app[0].startTime 0s
param **.source_045.app[0].idleInterval 1000s
param **.source_045.app[0].requestLength 1300B
param **.source_045.app[0].replyLength 20B
param **.source_045.app[0].thinkTime 0s
param **.source_045.app[0].numRequestsPerSession 21
param **.source_046.numApps 1
param **.source_046.app[0].typename "\"TcpBasicClientApp\""
param **.source_046.app[0].localAddress "\"\""
param **.source_046.app[0].connectAddress "\"sink_046\""
param **.source_046.app[0].connectPort 1100
param **.source_046.app[0].startTime 0s
param **.source_046.app[0].idleInterval 1000s
param **.source_046.app[0].requestLength 1300B
param **.source_046.app[0].replyLength 20B
param **.source_046.app[0].thinkTime 0s
param **.source_046.app[0].numRequestsPerSession 147
param **.source_047.numApps 1
param **.source_047.app[0].typename "\"TcpBasicClientApp\""
param **.source_047.app[0].localAddress "\"\""
param **.source_047.app[0].connectAddress "\"sink_047\""
param **.source_047.app[0].connectPort 1100
param **.source_047.app[0].startTime 0s
param **.source_047.app[0].idleInterval 1000s
param **.source_047.app[0].requestLength 1300B
param **.source_047.app[0].replyLength 20B
param **.source_047.app[0].thinkTime 0s
param **.source_047.app[0].numRequestsPerSession 2
param **.source_048.numApps 1
param **.source_048.app[0].typename "\"TcpBasicClientApp\""
param **.source_048.app[0].localAddress "\"\""
param **.source_048.app[0].connectAddress "\"sink_048\""
param **.source_048.app[0].connectPort 1100
param **.source_048.app[0].startTime 0s
param **.source_048.app[0].idleInterval 1000s
param **.source_048.app[0].requestLength 1300B
param **.source_048.app[0].replyLength 20B
param **.source_048.app[0].thinkTime 0s
param **.source_048.app[0].numRequestsPerSession 25
param **.source_049.numApps 1
param **.source_049.app[0].typename "\"TcpBasicClientApp\""
param **.source_049.app[0].localAddress "\"\""
param **.source_049.app[0].connectAddress "\"sink_049\""
param **.source_049.app[0].connectPort 1100
param **.source_049.app[0].startTime 0s
param **.source_049.app[0].idleInterval 1000s
param **.source_049.app[0].requestLength 1300B
param **.source_049.app[0].replyLength 20B
param **.source_049.app[0].thinkTime 0s
param **.source_049.app[0].numRequestsPerSession 13
param **.source_050.numApps 1
param **.source_050.app[0].typename "\"TcpBasicClientApp\""
param **.source_050.app[0].localAddress "\"\""
param **.source_050.app[0].connectAddress "\"sink_050\""
param **.source_050.app[0].connectPort 1100
param **.source_050.app[0].startTime 0s
param **.source_050.app[0].idleInterval 1000s
param **.source_050.app[0].requestLength 1300B
param **.source_050.app[0].replyLength 20B
param **.source_050.app[0].thinkTime 0s
param **.source_050.app[0].numRequestsPerSession 3
param **.source_051.numApps 1
param **.source_051.app[0].typename "\"TcpBasicClientApp\""
param **.source_051.app[0].localAddress "\"\""
param **.source_051.app[0].connectAddress "\"sink_051\""
param **.source_051.app[0].connectPort 1100
param **.source_051.app[0].startTime 0s
param **.source_051.app[0].idleInterval 1000s
param **.source_051.app[0].requestLength 1300B
param **.source_051.app[0].replyLength 20B
param **.source_051.app[0].thinkTime 0s
param **.source_051.app[0].numRequestsPerSession 6
param **.source_052.numApps 1
param **.source_052.app[0].typename "\"TcpBasicClientApp\""
param **.source_052.app[0].localAddress "\"\""
param **.source_052.app[0].connectAddress "\"sink_052\""
param **.source_052.app[0].connectPort 1100
param **.source_052.app[0].startTime 0s
param **.source_052.app[0].idleInterval 1000s
param **.source_052.app[0].requestLength 1300B
param **.source_052.app[0].replyLength 20B
param **.source_052.app[0].thinkTime 0s
param **.source_052.app[0].numRequestsPerSession 8
param **.source_053.numApps 1
param **.source_053.app[0].typename "\"TcpBasicClientApp\""
param **.source_053.app[0].localAddress "\"\""
param **.source_053.app[0].connectAddress "\"sink_053\""
param **.source_053.app[0].connectPort 1100
param **.source_053.app[0].startTime 0s
param **.source_053.app[0].idleInterval 1000s
param **.source_053.app[0].requestLength 1300B
param **.source_053.app[0].replyLength 20B
param **.source_053.app[0].thinkTime 0s
param **.source_053.app[0].numRequestsPerSession 17
param **.source_054.numApps 1
param **.source_054.app[0].typename "\"TcpBasicClientApp\""
param **.source_054.app[0].localAddress "\"\""
param **.source_054.app[0].connectAddress "\"sink_054\""
param **.source_054.app[0].connectPort 1100
param **.source_054.app[0].startTime 0s
param **.source_054.app[0].idleInterval 1000s
param **.source_054.app[0].requestLength 1300B
param **.source_054.app[0].replyLength 20B
param **.source_054.app[0].thinkTime 0s
param **.source_054.app[0].numRequestsPerSession 9
param **.source_055.numApps 1
param **.source_055.app[0].typename "\"TcpBasicClientApp\""
param **.source_055.app[0].localAddress "\"\""
param **.source_055.app[0].connectAddress "\"sink_055\""
param **.source_055.app[0].connectPort 1100
param **.source_055.app[0].startTime 0s
param **.source_055.app[0].idleInterval 1000s
param **.source_055.app[0].requestLength 1300B
param **.source_055.app[0].replyLength 20B
param **.source_055.app[0].thinkTime 0s
param **.source_055.app[0].numRequestsPerSession 2
param **.source_056.numApps 1
param **.source_056.app[0].typename "\"TcpBasicClientApp\""
param **.source_056.app[0].localAddress "\"\""
param **.source_056.app[0].connectAddress "\"sink_056\""
param **.source_056.app[0].connectPort 1100
param **.source_056.app[0].startTime 0s
param **.source_056.app[0].idleInterval 1000s
param **.source_056.app[0].requestLength 1300B
param **.source_056.app[0].replyLength 20B
param **.source_056.app[0].thinkTime 0s
param **.source_056.app[0].numRequestsPerSession 26
param **.source_057.numApps 1
param **.source_057.app[0].typename "\"TcpBasicClientApp\""
param **.source_057.app[0].localAddress "\"\""
param **.source_057.app[0].connectAddress "\"sink_057\""
param **.source_057.app[0].connectPort 1100
param **.source_057.app[0].startTime 0s
param **.source_057.app[0].idleInterval 1000s
param **.source_057.app[0].requestLength 1300B
param **.source_057.app[0].replyLength 20B
param **.source_057.app[0].thinkTime 0s
param **.source_057.app[0].numRequestsPerSession 42
param **.source_058.numApps 1
param **.source_058.app[0].typename "\"TcpBasicClientApp\""
param **.source_058.app[0].localAddress "\"\""
param **.source_058.app[0].connectAddress "\"sink_058\""
param **.source_058.app[0].connectPort 1100
param **.source_058.app[0].startTime 0s
param **.source_058.app[0].idleInterval 1000s
param **.source_058.app[0].requestLength 1300B
param **.source_058.app[0].replyLength 20B
param **.source_058.app[0].thinkTime 0s
param **.source_058.app[0].numRequestsPerSession 2
param **.source_059.numApps 1
param **.source_059.app[0].typename "\"TcpBasicClientApp\""
param **.source_059.app[0].localAddress "\"\""
param **.source_059.app[0].connectAddress "\"sink_059\""
param **.source_059.app[0].connectPort 1100
param **.source_059.app[0].startTime 0s
param **.source_059.app[0].idleInterval 1000s
param **.source_059.app[0].requestLength 1300B
param **.source_059.app[0].replyLength 20B
param **.source_059.app[0].thinkTime 0s
param **.source_059.app[0].numRequestsPerSession 54
param **.source_060.numApps 1
param **.source_060.app[0].typename "\"TcpBasicClientApp\""
param **.source_060.app[0].localAddress "\"\""
param **.source_060.app[0].connectAddress "\"sink_060\""
param **.source_060.app[0].connectPort 1100
param **.source_060.app[0].startTime 0s
param **.source_060.app[0].idleInterval 1000s
param **.source_060.app[0].requestLength 1300B
param **.source_060.app[0].replyLength 20B
param **.source_060.app[0].thinkTime 0s
param **.source_060.app[0].numRequestsPerSession 4
param **.source_061.numApps 1
param **.source_061.app[0].typename "\"TcpBasicClientApp\""
param **.source_061.app[0].localAddress "\"\""
param **.source_061.app[0].connectAddress "\"sink_061\""
param **.source_061.app[0].connectPort 1100
param **.source_061.app[0].startTime 0s
param **.source_061.app[0].idleInterval 1000s
param **.source_061.app[0].requestLength 1300B
param **.source_061.app[0].replyLength 20B
param **.source_061.app[0].thinkTime 0s
param **.source_061.app[0].numRequestsPerSession 9
param **.source_062.numApps 1
param **.source_062.app[0].typename "\"TcpBasicClientApp\""
param **.source_062.app[0].localAddress "\"\""
param **.source_062.app[0].connectAddress "\"sink_062\""
param **.source_062.app[0].connectPort 1100
param **.source_062.app[0].startTime 0s
param **.source_062.app[0].idleInterval 1000s
param **.source_062.app[0].requestLength 1300B
param **.source_062.app[0].replyLength 20B
param **.source_062.app[0].thinkTime 0s
param **.source_062.app[0].numRequestsPerSession 243
param **.tcp.mss 1400
param **.tcp.tcpAlgorithmClass "\"TcpReno\""
param **.tcp.crcMode "\"computed\""
param **.app[*].dataTransferMode "\"object\""

vector 0 Jellyfish_8_8_7_8__jelly_vary_num_switches_seed2.source_000.app[0] numActiveSessions:vector ETV
attr interpolationmode sample-hold
attr source sum(connect)
attr title "number of active sessions, vector"
vector 1 Jellyfish_8_8_7_8__jelly_vary_num_switches_seed2.source_001.app[0] numActiveSessions:vector ETV
attr interpolationmode sample-hold
attr source sum(connect)
attr title "number of active sessions, vector"
vector 2 Jellyfish_8_8_7_8__jelly_vary_num_switches_seed2.source_002.app[0] numActiveSessions:vector ETV
attr interpolationmode sample-hold
attr source sum(connect)
attr title "number of active sessions, vector"
vector 3 Jellyfish_8_8_7_8__jelly_vary_num_switches_seed2.source_003.app[0] numActiveSessions:vector ETV
attr interpolationmode sample-hold
attr source sum(connect)
attr title "number of active sessions, vector"
vector 4 Jellyfish_8_8_7_8__jelly_vary_num_switches_seed2.source_004.app[0] numActiveSessions:vector ETV
attr interpolationmode sample-hold
attr source sum(connect)
attr title "number of active sessions, vector"
vector 5 Jellyfish_8_8_7_8__jelly_vary_num_switches_seed2.source_005.app[0] numActiveSessions:vector ETV
attr interpolationmode sample-hold
attr source sum(connect)
attr title "number of active sessions, vector"
vector 6 Jellyfish_8_8_7_8__jelly_vary_num_switches_seed2.source_006.app[0] numActiveSessions:vector ETV
attr interpolationmode sample-hold
attr source sum(connect)
attr title "number of active sessions, vector"
vector 7 Jellyfish_8_8_7_8__jelly_vary_num_switches_seed2.source_007.app[0] numActiveSessions:vector ETV
attr interpolationmode sample-hold
attr source sum(connect)
attr title "number of active sessions, vector"
vector 8 Jellyfish_8_8_7_8__jelly_vary_num_switches_seed2.source_008.app[0] numActiveSessions:vector ETV
attr interpolationmode sample-hold
attr source sum(connect)
attr title "number of active sessions, vector"
vector 9 Jellyfish_8_8_7_8__jelly_vary_num_switches_seed2.source_009.app[0] numActiveSessions:vector ETV
attr interpolationmode sample-hold
attr source sum(connect)
attr title "number of active sessions, vector"
vector 10 Jellyfish_8_8_7_8__jelly_vary_num_switches_seed2.source_010.app[0] numActiveSessions:vector ETV
attr interpolationmode sample-hold
attr source sum(connect)
attr title "number of active sessions, vector"
vector 11 Jellyfish_8_8_7_8__jelly_vary_num_switches_seed2.source_011.app[0] numActiveSessions:vector ETV
attr interpolationmode sample-hold
attr source sum(connect)
attr title "number of active sessions, vector"
vector 12 Jellyfish_8_8_7_8__jelly_vary_num_switches_seed2.source_012.app[0] numActiveSessions:vector ETV
attr interpolationmode sample-hold
attr source sum(connect)
attr title "number of active sessions, vector"
vector 13 Jellyfish_8_8_7_8__jelly_vary_num_switches_seed2.source_013.app[0] numActiveSessions:vector ETV
attr interpolationmode sample-hold
attr source sum(connect)
attr title "number of active sessions, vector"
vector 14 Jellyfish_8_8_7_8__jelly_vary_num_switches_seed2.source_014.app[0] numActiveSessions:vector ETV
attr interpolationmode sample-hold
attr source sum(connect)
attr title "number of active sessions, vector"
vector 15 Jellyfish_8_8_7_8__jelly_vary_num_switches_seed2.source_015.app[0] numActiveSessions:vector ETV
attr interpolationmode sample-hold
attr source sum(connect)
attr title "number of active sessions, vector"
vector 16 Jellyfish_8_8_7_8__jelly_vary_num_switches_seed2.source_016.app[0] numActiveSessions:vector ETV
attr interpolationmode sample-hold
attr source sum(connect)
attr title "number of active sessions, vector"
vector 17 Jellyfish_8_8_7_8__jelly_vary_num_switches_seed2.source_017.app[0] numActiveSessions:vector ETV
attr interpolationmode sample-hold
attr source sum(connect)
attr title "number of active sessions, vector"
vector 18 Jellyfish_8_8_7_8__jelly_vary_num_switches_seed2.source_018.app[0] numActiveSessions:vector ETV
attr interpolationmode sample-hold
attr source sum(connect)
attr title "number of active sessions, vector"
vector 19 Jellyfish_8_8_7_8__jelly_vary_num_switches_seed2.source_019.app[0] numActiveSessions:vector ETV
attr interpolationmode sample-hold
attr source sum(connect)
attr title "number of active sessions, vector"
vector 20 Jellyfish_8_8_7_8__jelly_vary_num_switches_seed2.source_020.app[0] numActiveSessions:vector ETV
attr interpolationmode sample-hold
attr source sum(connect)
attr title "number of active sessions, vector"
vector 21 Jellyfish_8_8_7_8__jelly_vary_num_switches_seed2.source_021.app[0] numActiveSessions:vector ETV
attr interpolationmode sample-hold
attr source sum(connect)
attr title "number of active sessions, vector"
vector 22 Jellyfish_8_8_7_8__jelly_vary_num_switches_seed2.source_022.app[0] numActiveSessions:vector ETV
attr interpolationmode sample-hold
attr source sum(connect)
attr title "number of active sessions, vector"
vector 23 Jellyfish_8_8_7_8__jelly_vary_num_switches_seed2.source_023.app[0] numActiveSessions:vector ETV
attr interpolationmode sample-hold
attr source sum(connect)
attr title "number of active sessions, vector"
vector 24 Jellyfish_8_8_7_8__jelly_vary_num_switches_seed2.source_024.app[0] numActiveSessions:vector ETV
attr interpolationmode sample-hold
attr source sum(connect)
attr title "number of active sessions, vector"
vector 25 Jellyfish_8_8_7_8__jelly_vary_num_switches_seed2.source_025.app[0] numActiveSessions:vector ETV
attr interpolationmode sample-hold
attr source sum(connect)
attr title "number of active sessions, vector"
vector 26 Jellyfish_8_8_7_8__jelly_vary_num_switches_seed2.source_026.app[0] numActiveSessions:vector ETV
attr interpolationmode sample-hold
attr source sum(connect)
attr title "number of active sessions, vector"
vector 27 Jellyfish_8_8_7_8__jelly_vary_num_switches_seed2.source_027.app[0] numActiveSessions:vector ETV
attr interpolationmode sample-hold
attr source sum(connect)
attr title "number of active sessions, vector"
vector 28 Jellyfish_8_8_7_8__jelly_vary_num_switches_seed2.source_028.app[0] numActiveSessions:vector ETV
attr interpolationmode sample-hold
attr source sum(connect)
attr title "number of active sessions, vector"
vector 29 Jellyfish_8_8_7_8__jelly_vary_num_switches_seed2.source_029.app[0] numActiveSessions:vector ETV
attr interpolationmode sample-hold
attr source sum(connect)
attr title "number of active sessions, vector"
vector 30 Jellyfish_8_8_7_8__jelly_vary_num_switches_seed2.source_030.app[0] numActiveSessions:vector ETV
attr interpolationmode sample-hold
attr source sum(connect)
attr title "number of active sessions, vector"
vector 31 Jellyfish_8_8_7_8__jelly_vary_num_switches_seed2.source_031.app[0] numActiveSessions:vector ETV
attr interpolationmode sample-hold
attr source sum(connect)
attr title "number of active sessions, vector"
vector 32 Jellyfish_8_8_7_8__jelly_vary_num_switches_seed2.source_032.app[0] numActiveSessions:vector ETV
attr interpolationmode sample-hold
attr source sum(connect)
attr title "number of active sessions, vector"
vector 33 Jellyfish_8_8_7_8__jelly_vary_num_switches_seed2.source_033.app[0] numActiveSessions:vector ETV
attr interpolationmode sample-hold
attr source sum(connect)
attr title "number of active sessions, vector"
vector 34 Jellyfish_8_8_7_8__jelly_vary_num_switches_seed2.source_034.app[0] numActiveSessions:vector ETV
attr interpolationmode sample-hold
attr source sum(connect)
attr title "number of active sessions, vector"
vector 35 Jellyfish_8_8_7_8__jelly_vary_num_switches_seed2.source_035.app[0] numActiveSessions:vector ETV
attr interpolationmode sample-hold
attr source sum(connect)
attr title "number of active sessions, vector"
vector 36 Jellyfish_8_8_7_8__jelly_vary_num_switches_seed2.source_036.app[0] numActiveSessions:vector ETV
attr interpolationmode sample-hold
attr source sum(connect)
attr title "number of active sessions, vector"
vector 37 Jellyfish_8_8_7_8__jelly_vary_num_switches_seed2.source_037.app[0] numActiveSessions:vector ETV
attr interpolationmode sample-hold
attr source sum(connect)
attr title "number of active sessions, vector"
vector 38 Jellyfish_8_8_7_8__jelly_vary_num_switches_seed2.source_038.app[0] numActiveSessions:vector ETV
attr interpolationmode sample-hold
attr source sum(connect)
attr title "number of active sessions, vector"
vector 39 Jellyfish_8_8_7_8__jelly_vary_num_switches_seed2.source_039.app[0] numActiveSessions:vector ETV
attr interpolationmode sample-hold
attr source sum(connect)
attr title "number of active sessions, vector"
vector 40 Jellyfish_8_8_7_8__jelly_vary_num_switches_seed2.source_040.app[0] numActiveSessions:vector ETV
attr interpolationmode sample-hold
attr source sum(connect)
attr title "number of active sessions, vector"
vector 41 Jellyfish_8_8_7_8__jelly_vary_num_switches_seed2.source_041.app[0] numActiveSessions:vector ETV
attr interpolationmode sample-hold
attr source sum(connect)
attr title "number of active sessions, vector"
vector 42 Jellyfish_8_8_7_8__jelly_vary_num_switches_seed2.source_042.app[0] numActiveSessions:vector ETV
attr interpolationmode sample-hold
attr source sum(connect)
attr title "number of active sessions, vector"
vector 43 Jellyfish_8_8_7_8__jelly_vary_num_switches_seed2.source_043.app[0] numActiveSessions:vector ETV
attr interpolationmode sample-hold
attr source sum(connect)
attr title "number of active sessions, vector"
vector 44 Jellyfish_8_8_7_8__jelly_vary_num_switches_seed2.source_044.app[0] numActiveSessions:vector ETV
attr interpolationmode sample-hold
attr source sum(connect)
attr title "number of active sessions, vector"
vector 45 Jellyfish_8_8_7_8__jelly_vary_num_switches_seed2.source_045.app[0] numActiveSessions:vector ETV
attr interpolationmode sample-hold
attr source sum(connect)
attr title "number of active sessions, vector"
vector 46 Jellyfish_8_8_7_8__jelly_vary_num_switches_seed2.source_046.app[0] numActiveSessions:vector ETV
attr interpolationmode sample-hold
attr source sum(connect)
attr title "number of active sessions, vector"
vector 47 Jellyfish_8_8_7_8__jelly_vary_num_switches_seed2.source_047.app[0] numActiveSessions:vector ETV
attr interpolationmode sample-hold
attr source sum(connect)
attr title "number of active sessions, vector"
vector 48 Jellyfish_8_8_7_8__jelly_vary_num_switches_seed2.source_048.app[0] numActiveSessions:vector ETV
attr interpolationmode sample-hold
attr source sum(connect)
attr title "number of active sessions, vector"
vector 49 Jellyfish_8_8_7_8__jelly_vary_num_switches_seed2.source_049.app[0] numActiveSessions:vector ETV
attr interpolationmode sample-hold
attr source sum(connect)
attr title "number of active sessions, vector"
vector 50 Jellyfish_8_8_7_8__jelly_vary_num_switches_seed2.source_050.app[0] numActiveSessions:vector ETV
attr interpolationmode sample-hold
attr source sum(connect)
attr title "number of active sessions, vector"
vector 51 Jellyfish_8_8_7_8__jelly_vary_num_switches_seed2.source_051.app[0] numActiveSessions:vector ETV
attr interpolationmode sample-hold
attr source sum(connect)
attr title "number of active sessions, vector"
vector 52 Jellyfish_8_8_7_8__jelly_vary_num_switches_seed2.source_052.app[0] numActiveSessions:vector ETV
attr interpolationmode sample-hold
attr source sum(connect)
attr title "number of active sessions, vector"
vector 53 Jellyfish_8_8_7_8__jelly_vary_num_switches_seed2.source_053.app[0] numActiveSessions:vector ETV
attr interpolationmode sample-hold
attr source sum(connect)
attr title "number of active sessions, vector"
vector 54 Jellyfish_8_8_7_8__jelly_vary_num_switches_seed2.source_054.app[0] numActiveSessions:vector ETV
attr interpolationmode sample-hold
attr source sum(connect)
attr title "number of active sessions, vector"
vector 55 Jellyfish_8_8_7_8__jelly_vary_num_switches_seed2.source_055.app[0] numActiveSessions:vector ETV
attr interpolationmode sample-hold
attr source sum(connect)
attr title "number of active sessions, vector"
vector 56 Jellyfish_8_8_7_8__jelly_vary_num_switches_seed2.source_056.app[0] numActiveSessions:vector ETV
attr interpolationmode sample-hold
attr source sum(connect)
attr title "number of active sessions, vector"
vector 57 Jellyfish_8_8_7_8__jelly_vary_num_switches_seed2.source_057.app[0] numActiveSessions:vector ETV
attr interpolationmode sample-hold
attr source sum(connect)
attr title "number of active sessions, vector"
vector 58 Jellyfish_8_8_7_8__jelly_vary_num_switches_seed2.source_058.app[0] numActiveSessions:vector ETV
attr interpolationmode sample-hold
attr source sum(connect)
attr title "number of active sessions, vector"
vector 59 Jellyfish_8_8_7_8__jelly_vary_num_switches_seed2.source_059.app[0] numActiveSessions:vector ETV
attr interpolationmode sample-hold
attr source sum(connect)
attr title "number of active sessions, vector"
vector 60 Jellyfish_8_8_7_8__jelly_vary_num_switches_seed2.source_060.app[0] numActiveSessions:vector ETV
attr interpolationmode sample-hold
attr source sum(connect)
attr title "number of active sessions, vector"
vector 61 Jellyfish_8_8_7_8__jelly_vary_num_switches_seed2.source_061.app[0] numActiveSessions:vector ETV
attr interpolationmode sample-hold
attr source sum(connect)
attr title "number of active sessions, vector"
vector 62 Jellyfish_8_8_7_8__jelly_vary_num_switches_seed2.source_062.app[0] numActiveSessions:vector ETV
attr interpolationmode sample-hold
attr source sum(connect)
attr title "number of active sessions, vector"
vector 63 Jellyfish_8_8_7_8__jelly_vary_num_switches_seed2.sink_036.app[0] endToEndDelay:vector ETV
attr interpolationmode none
attr source dataAge(packetReceived)
attr title "end-to-end delay, vector"
attr unit s
vector 64 Jellyfish_8_8_7_8__jelly_vary_num_switches_seed2.source_036.app[0] endToEndDelay:vector ETV
attr interpolationmode none
attr source dataAge(packetReceived)
attr title "end-to-end delay, vector"
attr unit s
vector 65 Jellyfish_8_8_7_8__jelly_vary_num_switches_seed2.sink_002.app[0] endToEndDelay:vector ETV
attr interpolationmode none
attr source dataAge(packetReceived)
attr title "end-to-end delay, vector"
attr unit s
vector 66 Jellyfish_8_8_7_8__jelly_vary_num_switches_seed2.sink_008.app[0] endToEndDelay:vector ETV
attr interpolationmode none
attr source dataAge(packetReceived)
attr title "end-to-end delay, vector"
attr unit s
vector 67 Jellyfish_8_8_7_8__jelly_vary_num_switches_seed2.sink_028.app[0] endToEndDelay:vector ETV
attr interpolationmode none
attr source dataAge(packetReceived)
attr title "end-to-end delay, vector"
attr unit s
vector 68 Jellyfish_8_8_7_8__jelly_vary_num_switches_seed2.source_002.app[0] endToEndDelay:vector ETV
attr interpolationmode none
attr source dataAge(packetReceived)
attr title "end-to-end delay, vector"
attr unit s
vector 69 Jellyfish_8_8_7_8__jelly_vary_num_switches_seed2.source_028.app[0] endToEndDelay:vector ETV
attr interpolationmode none
attr source dataAge(packetReceived)
attr title "end-to-end delay, vector"
attr unit s
vector 70 Jellyfish_8_8_7_8__jelly_vary_num_switches_seed2.source_008.app[0] endToEndDelay:vector ETV
attr interpolationmode none
attr source dataAge(packetReceived)
attr title "end-to-end delay, vector"
attr unit s
vector 71 Jellyfish_8_8_7_8__jelly_vary_num_switches_seed2.sink_011.app[0] endToEndDelay:vector ETV
attr interpolationmode none
attr source dataAge(packetReceived)
attr title "end-to-end delay, vector"
attr unit s
vector 72 Jellyfish_8_8_7_8__jelly_vary_num_switches_seed2.sink_027.app[0] endToEndDelay:vector ETV
attr interpolationmode none
attr source dataAge(packetReceived)
attr title "end-to-end delay, vector"
attr unit s
vector 73 Jellyfish_8_8_7_8__jelly_vary_num_switches_seed2.source_011.app[0] endToEndDelay:vector ETV
attr interpolationmode none
attr source dataAge(packetReceived)
attr title "end-to-end delay, vector"
attr unit s
vector 74 Jellyfish_8_8_7_8__jelly_vary_num_switches_seed2.source_027.app[0] endToEndDelay:vector ETV
attr interpolationmode none
attr source dataAge(packetReceived)
attr title "end-to-end delay, vector"
attr unit s
vector 75 Jellyfish_8_8_7_8__jelly_vary_num_switches_seed2.sink_000.app[0] endToEndDelay:vector ETV
attr interpolationmode none
attr source dataAge(packetReceived)
attr title "end-to-end delay, vector"
attr unit s
vector 76 Jellyfish_8_8_7_8__jelly_vary_num_switches_seed2.sink_038.app[0] endToEndDelay:vector ETV
attr interpolationmode none
attr source dataAge(packetReceived)
attr title "end-to-end delay, vector"
attr unit s
vector 77 Jellyfish_8_8_7_8__jelly_vary_num_switches_seed2.source_000.app[0] endToEndDelay:vector ETV
attr interpolationmode none
attr source dataAge(packetReceived)
attr title "end-to-end delay, vector"
attr unit s
vector 78 Jellyfish_8_8_7_8__jelly_vary_num_switches_seed2.source_038.app[0] endToEndDelay:vector ETV
attr interpolationmode none
attr source dataAge(packetReceived)
attr title "end-to-end delay, vector"
attr unit s
vector 79 Jellyfish_8_8_7_8__jelly_vary_num_switches_seed2.sink_004.app[0] endToEndDelay:vector ETV
attr interpolationmode none
attr source dataAge(packetReceived)
attr title "end-to-end delay, vector"
attr unit s
vector 80 Jellyfish_8_8_7_8__jelly_vary_num_switches_seed2.sink_039.app[0] endToEndDelay:vector ETV
attr interpolationmode none
attr source dataAge(packetReceived)
attr title "end-to-end delay, vector"
attr unit s
vector 81 Jellyfish_8_8_7_8__jelly_vary_num_switches_seed2.sink_010.app[0] endToEndDelay:vector ETV
attr interpolationmode none
attr source dataAge(packetReceived)
attr title "end-to-end delay, vector"
attr unit s
vector 82 Jellyfish_8_8_7_8__jelly_vary_num_switches_seed2.sink_025.app[0] endToEndDelay:vector ETV
attr interpolationmode none
attr source dataAge(packetReceived)
attr title "end-to-end delay, vector"
attr unit s
vector 83 Jellyfish_8_8_7_8__jelly_vary_num_switches_seed2.source_039.app[0] endToEndDelay:vector ETV
attr interpolationmode none
attr source dataAge(packetReceived)
attr title "end-to-end delay, vector"
attr unit s
vector 84 Jellyfish_8_8_7_8__jelly_vary_num_switches_seed2.source_010.app[0] endToEndDelay:vector ETV
attr interpolationmode none
attr source dataAge(packetReceived)
attr title "end-to-end delay, vector"
attr unit s
vector 85 Jellyfish_8_8_7_8__jelly_vary_num_switches_seed2.source_004.app[0] endToEndDelay:vector ETV
attr interpolationmode none
attr source dataAge(packetReceived)
attr title "end-to-end delay, vector"
attr unit s
vector 86 Jellyfish_8_8_7_8__jelly_vary_num_switches_seed2.source_025.app[0] endToEndDelay:vector ETV
attr interpolationmode none
attr source dataAge(packetReceived)
attr title "end-to-end delay, vector"
attr unit s
vector 87 Jellyfish_8_8_7_8__jelly_vary_num_switches_seed2.sink_001.app[0] endToEndDelay:vector ETV
attr interpolationmode none
attr source dataAge(packetReceived)
attr title "end-to-end delay, vector"
attr unit s
vector 88 Jellyfish_8_8_7_8__jelly_vary_num_switches_seed2.sink_012.app[0] endToEndDelay:vector ETV
attr interpolationmode none
attr source dataAge(packetReceived)
attr title "end-to-end delay, vector"
attr unit s
vector 89 Jellyfish_8_8_7_8__jelly_vary_num_switches_seed2.sink_037.app[0] endToEndDelay:vector ETV
attr interpolationmode none
attr source dataAge(packetReceived)
attr title "end-to-end delay, vector"
attr unit s
vector 90 Jellyfish_8_8_7_8__jelly_vary_num_switches_seed2.sink_026.app[0] endToEndDelay:vector ETV
attr interpolationmode none
attr source dataAge(packetReceived)
attr title "end-to-end delay, vector"
attr unit s
vector 91 Jellyfish_8_8_7_8__jelly_vary_num_switches_seed2.source_001.app[0] endToEndDelay:vector ETV
attr interpolationmode none
attr source dataAge(packetReceived)
attr title "end-to-end delay, vector"
attr unit s
vector 92 Jellyfish_8_8_7_8__jelly_vary_num_switches_seed2.source_012.app[0] endToEndDelay:vector ETV
attr interpolationmode none
attr source dataAge(packetReceived)
attr title "end-to-end delay, vector"
attr unit s
vector 93 Jellyfish_8_8_7_8__jelly_vary_num_switches_seed2.sink_003.app[0] endToEndDelay:vector ETV
attr interpolationmode none
attr source dataAge(packetReceived)
attr title "end-to-end delay, vector"
attr unit s
vector 94 Jellyfish_8_8_7_8__jelly_vary_num_switches_seed2.sink_009.app[0] endToEndDelay:vector ETV
attr interpolationmode none
attr source dataAge(packetReceived)
attr title "end-to-end delay, vector"
attr unit s
vector 95 Jellyfish_8_8_7_8__jelly_vary_num_switches_seed2.source_037.app[0] endToEndDelay:vector ETV
attr interpolationmode none
attr source dataAge(packetReceived)
attr title "end-to-end delay, vector"
attr unit s
vector 96 Jellyfish_8_8_7_8__jelly_vary_num_switches_seed2.source_026.app[0] endToEndDelay:vector ETV
attr interpolationmode none
attr source dataAge(packetReceived)
attr title "end-to-end delay, vector"
attr unit s
vector 97 Jellyfish_8_8_7_8__jelly_vary_num_switches_seed2.source_009.app[0] endToEndDelay:vector ETV
attr interpolationmode none
attr source dataAge(packetReceived)
attr title "end-to-end delay, vector"
attr unit s
vector 98 Jellyfish_8_8_7_8__jelly_vary_num_switches_seed2.sink_013.app[0] endToEndDelay:vector ETV
attr interpolationmode none
attr source dataAge(packetReceived)
attr title "end-to-end delay, vector"
attr unit s
vector 99 Jellyfish_8_8_7_8__jelly_vary_num_switches_seed2.sink_041.app[0] endToEndDelay:vector ETV
attr interpolationmode none
attr source dataAge(packetReceived)
attr title "end-to-end delay, vector"
attr unit s
vector 100 Jellyfish_8_8_7_8__jelly_vary_num_switches_seed2.sink_029.app[0] endToEndDelay:vector ETV
attr interpolationmode none
attr source dataAge(packetReceived)
attr title "end-to-end delay, vector"
attr unit s
vector 101 Jellyfish_8_8_7_8__jelly_vary_num_switches_seed2.sink_006.app[0] endToEndDelay:vector ETV
attr interpolationmode none
attr source dataAge(packetReceived)
attr title "end-to-end delay, vector"
attr unit s
vector 102 Jellyfish_8_8_7_8__jelly_vary_num_switches_seed2.source_003.app[0] endToEndDelay:vector ETV
attr interpolationmode none
attr source dataAge(packetReceived)
attr title "end-to-end delay, vector"
attr unit s
vector 103 Jellyfish_8_8_7_8__jelly_vary_num_switches_seed2.source_041.app[0] endToEndDelay:vector ETV
attr interpolationmode none
attr source dataAge(packetReceived)
attr title "end-to-end delay, vector"
attr unit s
vector 104 Jellyfish_8_8_7_8__jelly_vary_num_switches_seed2.source_006.app[0] endToEndDelay:vector ETV
attr interpolationmode none
attr source dataAge(packetReceived)
attr title "end-to-end delay, vector"
attr unit s
vector 105 Jellyfish_8_8_7_8__jelly_vary_num_switches_seed2.source_029.app[0] endToEndDelay:vector ETV
attr interpolationmode none
attr source dataAge(packetReceived)
attr title "end-to-end delay, vector"
attr unit s
vector 106 Jellyfish_8_8_7_8__jelly_vary_num_switches_seed2.sink_042.app[0] endToEndDelay:vector ETV
attr interpolationmode none
attr source dataAge(packetReceived)
attr title "end-to-end delay, vector"
attr unit s
vector 107 Jellyfish_8_8_7_8__jelly_vary_num_switches_seed2.sink_031.app[0] endToEndDelay:vector ETV
attr interpolationmode none
attr source dataAge(packetReceived)
attr title "end-to-end delay, vector"
attr unit s
vector 108 Jellyfish_8_8_7_8__jelly_vary_num_switches_seed2.sink_016.app[0] endToEndDelay:vector ETV
attr interpolationmode none
attr source dataAge(packetReceived)
attr title "end-to-end delay, vector"
attr unit s
vector 109 Jellyfish_8_8_7_8__jelly_vary_num_switches_seed2.sink_007.app[0] endToEndDelay:vector ETV
attr interpolationmode none
attr source dataAge(packetReceived)
attr title "end-to-end delay, vector"
attr unit s
vector 110 Jellyfish_8_8_7_8__jelly_vary_num_switches_seed2.source_013.app[0] endToEndDelay:vector ETV
attr interpolationmode none
attr source dataAge(packetReceived)
attr title "end-to-end delay, vector"
attr unit s
vector 111 Jellyfish_8_8_7_8__jelly_vary_num_switches_seed2.source_016.app[0] endToEndDelay:vector ETV
attr interpolationmode none
attr source dataAge(packetReceived)
attr title "end-to-end delay, vector"
attr unit s
vector 112 Jellyfish_8_8_7_8__jelly_vary_num_switches_seed2.source_007.app[0] endToEndDelay:vector ETV
attr interpolationmode none
attr source dataAge(packetReceived)
attr title "end-to-end delay, vector"
attr unit s
vector 113 Jellyfish_8_8_7_8__jelly_vary_num_switches_seed2.source_031.app[0] endToEndDelay:vector ETV
attr interpolationmode none
attr source dataAge(packetReceived)
attr title "end-to-end delay, vector"
attr unit s
vector 114 Jellyfish_8_8_7_8__jelly_vary_num_switches_seed2.sink_040.app[0] endToEndDelay:vector ETV
attr interpolationmode none
attr source dataAge(packetReceived)
attr title "end-to-end delay, vector"
attr unit s
vector 115 Jellyfish_8_8_7_8__jelly_vary_num_switches_seed2.sink_019.app[0] endToEndDelay:vector ETV
attr interpolationmode none
attr source dataAge(packetReceived)
attr title "end-to-end delay, vector"
attr unit s
vector 116 Jellyfish_8_8_7_8__jelly_vary_num_switches_seed2.sink_034.app[0] endToEndDelay:vector ETV
attr interpolationmode none
attr source dataAge(packetReceived)
attr title "end-to-end delay, vector"
attr unit s
vector 117 Jellyfish_8_8_7_8__jelly_vary_num_switches_seed2.source_042.app[0] endToEndDelay:vector ETV
attr interpolationmode none
attr source dataAge(packetReceived)
attr title "end-to-end delay, vector"
attr unit s
vector 118 Jellyfish_8_8_7_8__jelly_vary_num_switches_seed2.source_019.app[0] endToEndDelay:vector ETV
attr interpolationmode none
attr source dataAge(packetReceived)
attr title "end-to-end delay, vector"
attr unit s
vector 119 Jellyfish_8_8_7_8__jelly_vary_num_switches_seed2.source_040.app[0] endToEndDelay:vector ETV
attr interpolationmode none
attr source dataAge(packetReceived)
attr title "end-to-end delay, vector"
attr unit s
vector 120 Jellyfish_8_8_7_8__jelly_vary_num_switches_seed2.source_034.app[0] endToEndDelay:vector ETV
attr interpolationmode none
attr source dataAge(packetReceived)
attr title "end-to-end delay, vector"
attr unit s
vector 121 Jellyfish_8_8_7_8__jelly_vary_num_switches_seed2.sink_046.app[0] endToEndDelay:vector ETV
attr interpolationmode none
attr source dataAge(packetReceived)
attr title "end-to-end delay, vector"
attr unit s
vector 122 Jellyfish_8_8_7_8__jelly_vary_num_switches_seed2.sink_014.app[0] endToEndDelay:vector ETV
attr interpolationmode none
attr source dataAge(packetReceived)
attr title "end-to-end delay, vector"
attr unit s
vector 123 Jellyfish_8_8_7_8__jelly_vary_num_switches_seed2.sink_030.app[0] endToEndDelay:vector ETV
attr interpolationmode none
attr source dataAge(packetReceived)
attr title "end-to-end delay, vector"
attr unit s
vector 124 Jellyfish_8_8_7_8__jelly_vary_num_switches_seed2.sink_005.app[0] endToEndDelay:vector ETV
attr interpolationmode none
attr source dataAge(packetReceived)
attr title "end-to-end delay, vector"
attr unit s
vector 125 Jellyfish_8_8_7_8__jelly_vary_num_switches_seed2.source_046.app[0] endToEndDelay:vector ETV
attr interpolationmode none
attr source dataAge(packetReceived)
attr title "end-to-end delay, vector"
attr unit s
vector 126 Jellyfish_8_8_7_8__jelly_vary_num_switches_seed2.source_014.app[0] endToEndDelay:vector ETV
attr interpolationmode none
attr source dataAge(packetReceived)
attr title "end-to-end delay, vector"
attr unit s
vector 127 Jellyfish_8_8_7_8__jelly_vary_num_switches_seed2.source_005.app[0] endToEndDelay:vector ETV
attr interpolationmode none
attr source dataAge(packetReceived)
attr title "end-to-end delay, vector"
attr unit s
vector 128 Jellyfish_8_8_7_8__jelly_vary_num_switches_seed2.sink_051.app[0] endToEndDelay:vector ETV
attr interpolationmode none
attr source dataAge(packetReceived)
attr title "end-to-end delay, vector"
attr unit s
vector 129 Jellyfish_8_8_7_8__jelly_vary_num_switches_seed2.sink_015.app[0] endToEndDelay:vector ETV
attr interpolationmode none
attr source dataAge(packetReceived)
attr title "end-to-end delay, vector"
attr unit s
vector 130 Jellyfish_8_8_7_8__jelly_vary_num_switches_seed2.sink_032.app[0] endToEndDelay:vector ETV
attr interpolationmode none
attr source dataAge(packetReceived)
attr title "end-to-end delay, vector"
attr unit s
vector 131 Jellyfish_8_8_7_8__jelly_vary_num_switches_seed2.source_030.app[0] endToEndDelay:vector ETV
attr interpolationmode none
attr source dataAge(packetReceived)
attr title "end-to-end delay, vector"
attr unit s
vector 132 Jellyfish_8_8_7_8__jelly_vary_num_switches_seed2.source_051.app[0] endToEndDelay:vector ETV
attr interpolationmode none
attr source dataAge(packetReceived)
attr title "end-to-end delay, vector"
attr unit s
vector 133 Jellyfish_8_8_7_8__jelly_vary_num_switches_seed2.source_032.app[0] endToEndDelay:vector ETV
attr interpolationmode none
attr source dataAge(packetReceived)
attr title "end-to-end delay, vector"
attr unit s
vector 134 Jellyfish_8_8_7_8__jelly_vary_num_switches_seed2.sink_045.app[0] endToEndDelay:vector ETV
attr interpolationmode none
attr source dataAge(packetReceived)
attr title "end-to-end delay, vector"
attr unit s
vector 135 Jellyfish_8_8_7_8__jelly_vary_num_switches_seed2.sink_033.app[0] endToEndDelay:vector ETV
attr interpolationmode none
attr source dataAge(packetReceived)
attr title "end-to-end delay, vector"
attr unit s
vector 136 Jellyfish_8_8_7_8__jelly_vary_num_switches_seed2.sink_017.app[0] endToEndDelay:vector ETV
attr interpolationmode none
attr source dataAge(packetReceived)
attr title "end-to-end delay, vector"
attr unit s
vector 137 Jellyfish_8_8_7_8__jelly_vary_num_switches_seed2.source_015.app[0] endToEndDelay:vector ETV
attr interpolationmode none
attr source dataAge(packetReceived)
attr title "end-to-end delay, vector"
attr unit s
vector 138 Jellyfish_8_8_7_8__jelly_vary_num_switches_seed2.source_045.app[0] endToEndDelay:vector ETV
attr interpolationmode none
attr source dataAge(packetReceived)
attr title "end-to-end delay, vector"
attr unit s
vector 139 Jellyfish_8_8_7_8__jelly_vary_num_switches_seed2.source_017.app[0] endToEndDelay:vector ETV
attr interpolationmode none
attr source dataAge(packetReceived)
attr title "end-to-end delay, vector"
attr unit s
vector 140 Jellyfish_8_8_7_8__jelly_vary_num_switches_seed2.source_033.app[0] endToEndDelay:vector ETV
attr interpolationmode none
attr source dataAge(packetReceived)
attr title "end-to-end delay, vector"
attr unit s
vector 141 Jellyfish_8_8_7_8__jelly_vary_num_switches_seed2.sink_043.app[0] endToEndDelay:vector ETV
attr interpolationmode none
attr source dataAge(packetReceived)
attr title "end-to-end delay, vector"
attr unit s
vector 142 Jellyfish_8_8_7_8__jelly_vary_num_switches_seed2.sink_035.app[0] endToEndDelay:vector ETV
attr interpolationmode none
attr source dataAge(packetReceived)
attr title "end-to-end delay, vector"
attr unit s
vector 143 Jellyfish_8_8_7_8__jelly_vary_num_switches_seed2.sink_020.app[0] endToEndDelay:vector ETV
attr interpolationmode none
attr source dataAge(packetReceived)
attr title "end-to-end delay, vector"
attr unit s
vector 144 Jellyfish_8_8_7_8__jelly_vary_num_switches_seed2.source_043.app[0] endToEndDelay:vector ETV
attr interpolationmode none
attr source dataAge(packetReceived)
attr title "end-to-end delay, vector"
attr unit s
vector 145 Jellyfish_8_8_7_8__jelly_vary_num_switches_seed2.source_020.app[0] endToEndDelay:vector ETV
attr interpolationmode none
attr source dataAge(packetReceived)
attr title "end-to-end delay, vector"
attr unit s
vector 146 Jellyfish_8_8_7_8__jelly_vary_num_switches_seed2.source_035.app[0] endToEndDelay:vector ETV
attr interpolationmode none
attr source dataAge(packetReceived)
attr title "end-to-end delay, vector"
attr unit s
vector 147 Jellyfish_8_8_7_8__jelly_vary_num_switches_seed2.sink_044.app[0] endToEndDelay:vector ETV
attr interpolationmode none
attr source dataAge(packetReceived)
attr title "end-to-end delay, vector"
attr unit s
vector 148 Jellyfish_8_8_7_8__jelly_vary_num_switches_seed2.sink_018.app[0] endToEndDelay:vector ETV
attr interpolationmode none
attr source dataAge(packetReceived)
attr title "end-to-end delay, vector"
attr unit s
vector 149 Jellyfish_8_8_7_8__jelly_vary_num_switches_seed2.source_044.app[0] endToEndDelay:vector ETV
attr interpolationmode none
attr source dataAge(packetReceived)
attr title "end-to-end delay, vector"
attr unit s
vector 150 Jellyfish_8_8_7_8__jelly_vary_num_switches_seed2.source_018.app[0] endToEndDelay:vector ETV
attr interpolationmode none
attr source dataAge(packetReceived)
attr title "end-to-end delay, vector"
attr unit s
vector 151 Jellyfish_8_8_7_8__jelly_vary_num_switches_seed2.sink_049.app[0] endToEndDelay:vector ETV
attr interpolationmode none
attr source dataAge(packetReceived)
attr title "end-to-end delay, vector"
attr unit s
vector 152 Jellyfish_8_8_7_8__jelly_vary_num_switches_seed2.sink_022.app[0] endToEndDelay:vector ETV
attr interpolationmode none
attr source dataAge(packetReceived)
attr title "end-to-end delay, vector"
attr unit s
vector 153 Jellyfish_8_8_7_8__jelly_vary_num_switches_seed2.source_022.app[0] endToEndDelay:vector ETV
attr interpolationmode none
attr source dataAge(packetReceived)
attr title "end-to-end delay, vector"
attr unit s
vector 154 Jellyfish_8_8_7_8__jelly_vary_num_switches_seed2.source_049.app[0] endToEndDelay:vector ETV
attr interpolationmode none
attr source dataAge(packetReceived)
attr title "end-to-end delay, vector"
attr unit s
vector 155 Jellyfish_8_8_7_8__jelly_vary_num_switches_seed2.sink_024.app[0] endToEndDelay:vector ETV
attr interpolationmode none
attr source dataAge(packetReceived)
attr title "end-to-end delay, vector"
attr unit s
vector 156 Jellyfish_8_8_7_8__jelly_vary_num_switches_seed2.sink_058.app[0] endToEndDelay:vector ETV
attr interpolationmode none
attr source dataAge(packetReceived)
attr title "end-to-end delay, vector"
attr unit s
vector 157 Jellyfish_8_8_7_8__jelly_vary_num_switches_seed2.source_058.app[0] endToEndDelay:vector ETV
attr interpolationmode none
attr source dataAge(packetReceived)
attr title "end-to-end delay, vector"
attr unit s
vector 158 Jellyfish_8_8_7_8__jelly_vary_num_switches_seed2.source_024.app[0] endToEndDelay:vector ETV
[...]
179	73916	0.220516	0.023244
179	79863	0.242914	0.02185
179	85227	0.262665	0.019203
180	16636	0.041163	0.000548
180	30184	0.080254	0.000548
180	41340	0.114086	0.000548
180	51588	0.143736	0.000548
180	59701	0.170645	0.000548
180	67435	0.197272	0.000548
180	74062	0.221064	0.000548
180	80012	0.243462	0.000548
180	85403	0.263213	0.000548
181	16770	0.041962	0.039177
181	29648	0.078359	0.035515
181	40705	0.112097	0.031776
181	50886	0.141747	0.028768
182	17190	0.042844	0.000882
182	30216	0.080321	0.001962
182	40926	0.112979	0.000882
182	51177	0.142629	0.000882
183	17280	0.043356	0.040622
183	30870	0.082447	0.038209
183	42221	0.116326	0.032997
183	52675	0.14737	0.030162
183	60806	0.174185	0.025933
183	67676	0.198118	0.023051
183	74255	0.221863	0.022863
183	80182	0.244261	0.021516
183	85637	0.264012	0.018869
183	89904	0.281069	0.016175
183	94059	0.297985	0.016034
183	97724	0.313319	0.014452
183	101043	0.327353	0.013152
183	104044	0.341387	0.013152
183	107235	0.356674	0.014405
183	110109	0.370614	0.013058
183	113083	0.384554	0.013058
183	115759	0.397194	0.011758
183	118398	0.409787	0.011711
183	120899	0.422333	0.011664
183	123428	0.434879	0.011664
183	125645	0.446172	0.010411
183	128060	0.458718	0.011664
183	130314	0.46987	0.01027
183	132680	0.481022	0.01027
183	134609	0.490874	0.00897
183	136535	0.499426	0.00767
183	138209	0.50779	0.007482
183	139731	0.516201	0.007529
183	141417	0.525912	0.008829
183	142955	0.534276	0.007482
183	144697	0.542687	0.007529
183	146039	0.550898	0.007329
183	147431	0.559113	0.007333
183	149116	0.568665	0.00867
183	150518	0.576829	0.007282
183	151961	0.586013	0.008302
183	153307	0.594177	0.007282
183	154930	0.603729	0.00867
183	156509	0.612849	0.008238
183	157826	0.621013	0.007282
183	159248	0.629177	0.007282
184	17719	0.044238	0.000882
184	31194	0.083329	0.000882
184	42547	0.117208	0.000882
184	52978	0.148252	0.000882
184	61115	0.175067	0.000882
184	68043	0.199	0.000882
184	74575	0.222745	0.000882
184	80510	0.245143	0.000882
184	85987	0.264894	0.000882
184	90226	0.281951	0.000882
184	94259	0.298867	0.000882
184	97987	0.314201	0.000882
184	101321	0.328235	0.000882
184	104306	0.342269	0.000882
184	107443	0.357556	0.000882
184	110298	0.371496	0.000882
184	113221	0.385436	0.000882
184	116048	0.398076	0.000882
184	118584	0.410669	0.000882
184	121050	0.423215	0.000882
184	123568	0.435761	0.000882
184	125916	0.447054	0.000882
184	128249	0.4596	0.000882
184	130493	0.470752	0.000882
184	132909	0.481904	0.000882
184	134781	0.491756	0.000882
184	136693	0.500308	0.000882
184	138389	0.508672	0.000882
184	139817	0.517083	0.000882
184	141504	0.526794	0.000882
184	143229	0.535158	0.000882
184	144814	0.543569	0.000882
184	146170	0.55178	0.000882
184	147517	0.559995	0.000882
184	149286	0.569547	0.000882
184	150674	0.577711	0.000882
184	152050	0.586895	0.000882
184	153541	0.595059	0.000882
184	155121	0.604611	0.000882
184	156670	0.613731	0.000882
184	158030	0.621895	0.000882
184	159403	0.630059	0.000882
185	18346	0.046144	0.043257
185	31290	0.083841	0.035464
185	41704	0.114932	0.030209
185	51816	0.144535	0.028721
185	59166	0.168609	0.023192
185	66070	0.192495	0.023004
185	72504	0.21494	0.021563
185	78016	0.235944	0.020122
185	83760	0.256901	0.020075
185	88618	0.275305	0.017522
185	92100	0.289668	0.013481
185	95406	0.303608	0.013058
185	98714	0.317548	0.013058
185	101648	0.330141	0.011711
185	104388	0.342781	0.011758
185	106958	0.355327	0.011664
185	109602	0.367873	0.011664
185	112190	0.380372	0.011617
185	114945	0.393059	0.011805
185	117289	0.404305	0.010364
185	119580	0.41541	0.010223
185	121748	0.426562	0.01027
185	123867	0.437667	0.010223
185	126049	0.447613	0.009064
185	127840	0.457371	0.008876
185	129813	0.467129	0.008876
185	131686	0.476887	0.008876
185	133696	0.486739	0.00897
185	135639	0.495197	0.007576
185	137312	0.503561	0.007482
185	138599	0.510578	0.006135
185	139892	0.517595	0.006135
185	141158	0.524565	0.006088
185	142442	0.531535	0.006088
185	143730	0.538505	0.006088
185	145033	0.545522	0.006135
185	146319	0.553484	0.00708
185	147653	0.560554	0.006188
185	148769	0.567271	0.005835
185	149935	0.573994	0.005841
185	151294	0.581784	0.006908
185	152359	0.588548	0.005882
185	153653	0.595618	0.006188
185	154720	0.602335	0.005835
185	155969	0.610061	0.006844
185	157139	0.616784	0.005841
185	158297	0.623548	0.005882
185	159484	0.630618	0.006188
185	160877	0.638361	0.006861
185	161951	0.645131	0.005888
185	163010	0.651854	0.005841
185	164052	0.658618	0.005882
185	165190	0.665335	0.005835
185	166317	0.672311	0.006094
185	167295	0.679081	0.005888
185	168330	0.685851	0.005888
185	169374	0.692615	0.005882
185	170504	0.699332	0.005835
185	171638	0.706308	0.006094
185	172643	0.713078	0.005888
185	173641	0.719848	0.005888
185	174676	0.726612	0.005882
185	175806	0.733329	0.005835
185	176974	0.740305	0.006094
185	178232	0.748302	0.007081
185	179352	0.756299	0.007115
185	180408	0.764296	0.007115
185	181472	0.772293	0.007115
185	182517	0.78029	0.007115
185	183559	0.788287	0.007115
185	184621	0.796331	0.007162
185	185653	0.804281	0.007068
185	186686	0.812278	0.007115
185	187715	0.820275	0.007115
185	188826	0.828272	0.007115
185	189872	0.836269	0.007115
185	190932	0.844266	0.007115
185	191979	0.852263	0.007115
185	193016	0.86026	0.007115
185	194164	0.868257	0.007115
185	195210	0.876254	0.007115
185	196353	0.884251	0.007115
185	197332	0.892248	0.007115
185	198267	0.900245	0.007115
185	199288	0.908242	0.007115
185	200225	0.916239	0.007115
185	201050	0.92297	0.005835
185	201762	0.929687	0.005835
185	202519	0.936404	0.005835
185	203303	0.943121	0.005835
185	204102	0.950648	0.006645
185	204991	0.958478	0.006948
185	205817	0.966308	0.006948
185	206668	0.974138	0.006948
185	207521	0.981968	0.006948
185	208320	0.989798	0.006948
185	209123	0.997628	0.006948
185	210009	1.005458	0.006948
185	210811	1.013288	0.006948
185	211607	1.021118	0.006948
185	212467	1.028948	0.006948
185	213278	1.036778	0.006948
185	214085	1.044608	0.006948
185	214971	1.052438	0.006948
185	215792	1.060268	0.006948
185	216685	1.068098	0.006948
185	217507	1.075928	0.006948
185	218314	1.083758	0.006948
185	219117	1.091588	0.006948
185	219987	1.099418	0.006948
185	220867	1.107248	0.006948
185	221724	1.115078	0.006948
185	222524	1.122908	0.006948
185	223327	1.130738	0.006948
185	224110	1.138568	0.006948
185	224965	1.146398	0.006948
185	225806	1.154228	0.006948
185	226675	1.162058	0.006948
185	227486	1.169888	0.006948
185	228290	1.177718	0.006948
185	229096	1.185548	0.006948
185	229961	1.193378	0.006948
185	230888	1.201208	0.006948
185	231712	1.209038	0.006948
185	232522	1.216868	0.006948
185	233326	1.224698	0.006948
185	234136	1.232528	0.006948
185	235025	1.240358	0.006948
185	235925	1.248188	0.006948
185	236724	1.256018	0.006948
185	237504	1.263848	0.006948
185	238304	1.271678	0.006948
185	239106	1.279508	0.006948
185	239953	1.287338	0.006948
185	240880	1.295168	0.006948
185	241690	1.302998	0.006948
185	242501	1.310828	0.006948
185	243304	1.318658	0.006948
185	244111	1.326488	0.006948
185	245021	1.334318	0.006948
185	245919	1.342148	0.006948
185	246730	1.349978	0.006948
185	247537	1.357808	0.006948
185	248344	1.365638	0.006948
185	249141	1.373468	0.006948
185	250056	1.381298	0.006948
185	250901	1.389128	0.006948
185	251806	1.396958	0.006948
185	252491	1.404788	0.006948
185	253176	1.412618	0.006948
185	253845	1.420448	0.006948
185	254662	1.428278	0.006948
185	255418	1.436108	0.006948
185	256112	1.443938	0.006948
185	256802	1.451768	0.006948
185	257504	1.459598	0.006948
185	258169	1.466315	0.005835
185	258734	1.473032	0.005835
185	259261	1.479749	0.005835
185	259795	1.486466	0.005835
185	260364	1.493183	0.005835
185	260937	1.4999	0.005835
185	261502	1.506617	0.005835
185	262063	1.513334	0.005835
185	262563	1.520051	0.005835
185	263132	1.526768	0.005835
185	263706	1.533485	0.005835
185	264297	1.540202	0.005835
185	264836	1.546919	0.005835
185	265331	1.553636	0.005835
185	265902	1.560353	0.005835
185	266500	1.56707	0.005835
185	267081	1.573787	0.005835
185	267613	1.580504	0.005835
185	268121	1.587221	0.005835
185	268700	1.593938	0.005835
185	269281	1.600655	0.005835
185	269862	1.607372	0.005835
185	270418	1.614089	0.005835
185	270899	1.620806	0.005835
185	271483	1.627523	0.005835
185	272068	1.63424	0.005835
185	272664	1.640957	0.005835
185	273198	1.647674	0.005835
185	273679	1.654391	0.005835
185	274263	1.661108	0.005835
185	274862	1.667825	0.005835
185	275439	1.674542	0.005835
185	275982	1.681259	0.005835
185	276481	1.687976	0.005835
185	277058	1.694693	0.005835
185	277635	1.70141	0.005835
185	278213	1.708127	0.005835
185	278780	1.714844	0.005835
185	279256	1.721561	0.005835
185	279834	1.728278	0.005835
185	280415	1.734995	0.005835
185	280991	1.741712	0.005835
185	281553	1.748429	0.005835
185	282030	1.755146	0.005835
185	282613	1.761863	0.005835
185	283186	1.76858	0.005835
185	283759	1.775297	0.005835
185	284332	1.782014	0.005835
185	284835	1.788731	0.005835
185	285381	1.795448	0.005835
185	285954	1.802165	0.005835
185	286527	1.808882	0.005835
185	287100	1.815599	0.005835
185	287615	1.822316	0.005835
185	288149	1.829033	0.005835
185	288723	1.83575	0.005835
185	289299	1.842467	0.005835
185	289868	1.849184	0.005835
185	290417	1.855901	0.005835
185	290921	1.862618	0.005835
185	291494	1.869335	0.005835
185	292067	1.876052	0.005835
185	292638	1.882769	0.005835
185	293194	1.889486	0.005835
185	293689	1.896203	0.005835
185	294262	1.90292	0.005835
185	294836	1.909637	0.005835
185	295412	1.916354	0.005835
185	295969	1.923071	0.005835
185	296458	1.929788	0.005835
185	297034	1.936505	0.005835
185	297607	1.943222	0.005835
185	298180	1.949939	0.005835
185	298749	1.956656	0.005835
185	299252	1.963373	0.005835
185	299802	1.97009	0.005835
185	300375	1.976807	0.005835
185	300948	1.983524	0.005835
185	301517	1.990241	0.005835
185	302032	1.996958	0.005835
185	302570	2.003675	0.005835
185	303144	2.010392	0.005835
185	303716	2.017109	0.005835
185	304285	2.023826	0.005835
185	304816	2.030543	0.005835
185	305342	2.03726	0.005835
185	305915	2.043977	0.005835
186	18788	0.047538	0.044702
186	32430	0.08677	0.038326
186	43218	0.119208	0.030432
186	53627	0.150111	0.029754
186	61251	0.175673	0.024021
186	68297	0.199559	0.023004
186	74739	0.223304	0.021896
186	80756	0.245749	0.021563
186	86071	0.265453	0.018822
186	90658	0.28381	0.017475
186	94334	0.299379	0.014687
186	98150	0.314713	0.014452
186	101472	0.328794	0.013199
186	104624	0.344128	0.014452
186	107550	0.358068	0.013058
186	110420	0.372008	0.013058
186	113323	0.385948	0.013058
186	116129	0.398635	0.011805
186	118635	0.411181	0.011664
186	121113	0.423727	0.011664
186	123632	0.43632	0.011013
186	126270	0.44896	0.011758
186	128352	0.460112	0.01027
186	130571	0.471264	0.01027
186	132965	0.482416	0.010048
186	134934	0.492268	0.00897
186	136878	0.500867	0.007717
186	138480	0.509231	0.007482
186	140097	0.518942	0.008829
186	141650	0.527306	0.007482
186	143339	0.53567	0.007482
186	144891	0.544175	0.007623
186	146710	0.554878	0.008623
186	148099	0.563042	0.007282
186	149483	0.571206	0.007282
186	150947	0.580437	0.007282
186	152707	0.589942	0.008623
186	154052	0.598106	0.007282
186	155510	0.607273	0.007282
186	156962	0.615437	0.007282
186	158563	0.624942	0.008623
186	160048	0.634179	0.007282
186	161470	0.642343	0.007282
186	162714	0.650507	0.007282
186	164254	0.660012	0.008623
186	165537	0.668176	0.007282
186	166792	0.67634	0.007282
186	168098	0.684504	0.007282
186	169588	0.694009	0.008623
186	170878	0.702173	0.007282
186	172101	0.710337	0.007282
186	173411	0.718501	0.007282
186	174944	0.728006	0.008623
186	176223	0.73617	0.007282
187	19192	0.048377	0.002233
187	31748	0.084723	0.000882
187	42017	0.115814	0.000882
187	52082	0.145417	0.000882
187	59406	0.169491	0.000882
187	66267	0.193377	0.000882
187	72693	0.215822	0.000882
187	78274	0.236826	0.000882
187	84006	0.257783	0.000882
187	88786	0.276187	0.000882
187	92287	0.29055	0.000882
187	95584	0.30449	0.000882
187	98874	0.31843	0.000882
187	101850	0.331023	0.000882
187	104549	0.343663	0.000882
187	107173	0.356209	0.000882
187	109750	0.368755	0.000882
187	112406	0.381254	0.000882
187	115134	0.393941	0.000882
187	117491	0.405187	0.000882
187	119713	0.416292	0.000882
187	121942	0.427444	0.000882
187	124048	0.438549	0.000882
187	126212	0.448495	0.000882
187	128011	0.458253	0.000882
187	130045	0.468011	0.000882
187	131798	0.477769	0.000882
187	133927	0.487621	0.000882
187	135728	0.496079	0.000882
187	137417	0.504443	0.000882
187	138708	0.51146	0.000882
187	140000	0.518477	0.000882
187	141266	0.525447	0.000882
187	142602	0.532417	0.000882
187	143926	0.539387	0.000882
187	145225	0.546404	0.000882
187	146530	0.554366	0.000882
187	147862	0.561436	0.000882
187	149004	0.568153	0.000882
187	150169	0.574876	0.000882
187	151463	0.582666	0.000882
187	152609	0.58943	0.000882
187	153770	0.5965	0.000882
187	154854	0.603217	0.000882
187	156118	0.610943	0.000882
187	157288	0.617666	0.000882
187	158480	0.62443	0.000882
187	159752	0.6315	0.000882
187	161120	0.639243	0.000882
187	162099	0.646013	0.000882
187	163158	0.652736	0.000882
187	164195	0.6595	0.000882
187	165337	0.666217	0.000882
187	166455	0.673193	0.000882
187	167465	0.679963	0.000882
187	168468	0.686733	0.000882
187	169505	0.693497	0.000882
187	170643	0.700214	0.000882
187	171803	0.70719	0.000882
187	172808	0.71396	0.000882
187	173793	0.72073	0.000882
187	174846	0.727494	0.000882
187	175992	0.734211	0.000882
187	177243	0.741221	0.000916
187	178386	0.749184	0.000882
187	179480	0.757181	0.000882
187	180574	0.765178	0.000882
187	181603	0.773175	0.000882
187	182683	0.781172	0.000882
187	183709	0.789169	0.000882
187	184769	0.797213	0.000882
187	185808	0.805163	0.000882
187	186855	0.81316	0.000882
187	187900	0.821157	0.000882
187	189005	0.829154	0.000882
187	190042	0.837151	0.000882
187	191079	0.845148	0.000882
187	192115	0.853145	0.000882
187	193203	0.861142	0.000882
187	194298	0.869139	0.000882
187	195347	0.877136	0.000882
187	196508	0.885133	0.000882
187	197433	0.89313	0.000882
187	198437	0.901127	0.000882
187	199382	0.909124	0.000882
187	200387	0.917135	0.000896
187	201190	0.923852	0.000882
187	201876	0.930569	0.000882
187	202626	0.937286	0.000882
187	203389	0.944003	0.000882
187	204253	0.95153	0.000882
187	205099	0.95936	0.000882
187	205933	0.96719	0.000882
187	206810	0.97502	0.000882
187	207611	0.98285	0.000882
187	208416	0.99068	0.000882
187	209275	0.99851	0.000882
187	210127	1.00634	0.000882
187	210969	1.01417	0.000882
187	211768	1.022	0.000882
187	212552	1.02983	0.000882
187	213363	1.03766	0.000882
187	214222	1.04549	0.000882
187	215078	1.05332	0.000882
187	215936	1.06115	0.000882
187	216785	1.06898	0.000882
187	217592	1.07681	0.000882
187	218403	1.08464	0.000882
187	219257	1.09247	0.000882
187	220112	1.1003	0.000882
187	221007	1.10813	0.000882
187	221821	1.11596	0.000882
187	222624	1.12379	0.000882
187	223435	1.13162	0.000882
187	224281	1.13945	0.000882
187	225143	1.14728	0.000882
187	225945	1.15511	0.000882
187	226764	1.16294	0.000882
187	227571	1.17077	0.000882
187	228379	1.1786	0.000882
187	229229	1.18643	0.000882
187	230132	1.19426	0.000882
187	230993	1.20209	0.000882
187	231804	1.20992	0.000882
187	232611	1.21775	0.000882
187	233412	1.22558	0.000882
187	234261	1.23341	0.000882
187	235210	1.24124	0.000882
187	236029	1.24907	0.000882
187	236836	1.2569	0.000882
187	237636	1.26473	0.000882
187	238443	1.27256	0.000882
187	239285	1.28039	0.000882
187	240146	1.28822	0.000882
187	240972	1.29605	0.000882
187	241776	1.30388	0.000882
187	242586	1.31171	0.000882
187	243397	1.31954	0.000882
187	244266	1.32737	0.000882
187	245201	1.3352	0.000882
187	246009	1.34303	0.000882
187	246812	1.35086	0.000882
187	247618	1.35869	0.000882
187	248429	1.36652	0.000882
187	249349	1.37435	0.000882
187	250237	1.38218	0.000882
187	251037	1.39001	0.000882
187	251942	1.39784	0.000882
187	252631	1.40567	0.000882
187	253316	1.4135	0.000882
187	254035	1.42133	0.000882
187	254802	1.42916	0.000882
187	255503	1.43699	0.000882
187	256193	1.44482	0.000882
187	256887	1.45265	0.000882
187	257673	1.46048	0.000882
187	258274	1.467197	0.000882
187	258855	1.473914	0.000882
187	259404	1.480631	0.000882
187	259889	1.487348	0.000882
187	260473	1.494065	0.000882
187	261054	1.500782	0.000882
187	261639	1.507499	0.000882
187	262188	1.514216	0.000882
187	262672	1.520933	0.000882
187	263253	1.52765	0.000882
187	263856	1.534367	0.000882
187	264433	1.541084	0.000882
187	264969	1.547801	0.000882
187	265456	1.554518	0.000882
187	266052	1.561235	0.000882
187	266629	1.567952	0.000882
187	267206	1.574669	0.000882
187	267771	1.581386	0.000882
187	268251	1.588103	0.000882
187	268828	1.59482	0.000882
187	269405	1.601537	0.000882
187	269989	1.608254	0.000882
187	270547	1.614971	0.000882
187	271026	1.621688	0.000882
187	271608	1.628405	0.000882
187	272184	1.635122	0.000882
187	272757	1.641839	0.000882
187	273323	1.648556	0.000882
187	273825	1.655273	0.000882
187	274379	1.66199	0.000882
187	274952	1.668707	0.000882
187	275525	1.675424	0.000882
187	276098	1.682141	0.000882
187	276605	1.688858	0.000882
187	277147	1.695575	0.000882
187	277720	1.702292	0.000882
187	278294	1.709009	0.000882
187	278866	1.715726	0.000882
187	279385	1.722443	0.000882
187	279915	1.72916	0.000882
187	280492	1.735877	0.000882
187	281065	1.742594	0.000882
187	281634	1.749311	0.000882
187	282185	1.756028	0.000882
187	282687	1.762745	0.000882
187	283260	1.769462	0.000882
187	283833	1.776179	0.000882
187	284410	1.782896	0.000882
187	284963	1.789613	0.000882
187	285455	1.79633	0.000882
187	286029	1.803047	0.000882
187	286605	1.809764	0.000882
187	287178	1.816481	0.000882
187	287739	1.823198	0.000882
187	288245	1.829915	0.000882
187	288800	1.836632	0.000882
187	289373	1.843349	0.000882
187	289946	1.850066	0.000882
187	290515	1.856783	0.000882
187	291023	1.8635	0.000882
187	291568	1.870217	0.000882
187	292141	1.876934	0.000882
187	292714	1.883651	0.000882
187	293283	1.890368	0.000882
187	293803	1.897085	0.000882
187	294336	1.903802	0.000882
187	294913	1.910519	0.000882
187	295482	1.917236	0.000882
187	296051	1.923953	0.000882
187	296606	1.93067	0.000882
187	297108	1.937387	0.000882
187	297681	1.944104	0.000882
187	298251	1.950821	0.000882
187	298827	1.957538	0.000882
187	299384	1.964255	0.000882
187	299876	1.970972	0.000882
187	300450	1.977689	0.000882
187	301026	1.984406	0.000882
187	301595	1.991123	0.000882
187	302160	1.99784	0.000882
187	302666	2.004557	0.000882
187	303221	2.011274	0.000882
187	303794	2.017991	0.000882
187	304363	2.024708	0.000882
187	304936	2.031425	0.000882
187	305444	2.038142	0.000882
187	305989	2.044859	0.000882
188	19227	0.048444	0.000906
188	32938	0.088776	0.002006
188	43516	0.120357	0.001149
188	54137	0.151652	0.001541
188	61449	0.176555	0.000882
188	68726	0.201408	0.001849
188	74934	0.224186	0.000882
188	81022	0.246631	0.000882
188	86300	0.266335	0.000882
188	90984	0.284692	0.000882
188	94550	0.300261	0.000882
188	98421	0.315595	0.000882
188	101576	0.329676	0.000882
188	104807	0.34501	0.000882
188	107662	0.35895	0.000882
188	110662	0.37289	0.000882
188	113483	0.38683	0.000882
188	116383	0.399517	0.000882
188	118843	0.412063	0.000882
188	121489	0.425307	0.00158
188	123808	0.437202	0.000882
188	126388	0.449842	0.000882
188	128639	0.460994	0.000882
188	130869	0.472368	0.001104
188	133077	0.483298	0.000882
188	135055	0.49315	0.000882
188	137116	0.501749	0.000882
188	138558	0.510113	0.000882
188	140297	0.519824	0.000882
188	141938	0.528188	0.000882
188	143448	0.536552	0.000882
188	145183	0.546255	0.00208
188	146923	0.55576	0.000882
188	148277	0.563924	0.000882
188	149804	0.573155	0.001949
188	151161	0.581319	0.000882
188	152884	0.590824	0.000882
188	154320	0.599991	0.001885
188	155703	0.608155	0.000882
188	157071	0.616319	0.000882
188	158854	0.626897	0.001955
188	160307	0.635061	0.000882
188	161597	0.643225	0.000882
188	162902	0.651389	0.000882
188	164372	0.660894	0.000882
188	165693	0.669058	0.000882
188	166948	0.677222	0.000882
188	168275	0.685386	0.000882
188	169749	0.694891	0.000882
188	171010	0.703055	0.000882
188	172329	0.711219	0.000882
188	173586	0.719383	0.000882
188	175087	0.728888	0.000882
188	176316	0.737079	0.000909

