file 750807 1651097784                                          
version 2
run General-0-20220427-22:15:35-22468
attr configname General
attr datetime 20220427-22:15:35
attr experiment General
attr inifile Jellyfish_24_4_3_4_n40__jelly_extra_core_routers_seed8.ini
attr iterationvars ""
attr iterationvarsf ""
attr measurement ""
attr network Jellyfish_24_4_3_4_n40__jelly_extra_core_routers_seed8
attr processid 22468
attr repetition 0
attr replication #0
attr resultdir results
attr runnumber 0
attr seedset 0
param **.ppp[*].ppp.queue.typename "\"DropTailQueue\""
param **.ppp[*].ppp.queue.packetCapacity 100
param *.configurator.config "xmldoc(\"Jellyfish_24_4_3_4_n40__jelly_extra_core_routers_seed8.xml\")"
param **.sink_000.numApps 1
param **.sink_000.app[0].typename "\"TcpGenericServerApp\""
param **.sink_000.app[0].localAddress "\"\""
param **.sink_000.app[0].localPort 1100
param **.sink_000.app[0].replyDelay 0s
param **.sink_001.numApps 1
param **.sink_001.app[0].typename "\"TcpGenericServerApp\""
param **.sink_001.app[0].localAddress "\"\""
param **.sink_001.app[0].localPort 1100
param **.sink_001.app[0].replyDelay 0s
param **.sink_002.numApps 1
param **.sink_002.app[0].typename "\"TcpGenericServerApp\""
param **.sink_002.app[0].localAddress "\"\""
param **.sink_002.app[0].localPort 1100
param **.sink_002.app[0].replyDelay 0s
param **.sink_003.numApps 1
param **.sink_003.app[0].typename "\"TcpGenericServerApp\""
param **.sink_003.app[0].localAddress "\"\""
param **.sink_003.app[0].localPort 1100
param **.sink_003.app[0].replyDelay 0s
param **.sink_004.numApps 1
param **.sink_004.app[0].typename "\"TcpGenericServerApp\""
param **.sink_004.app[0].localAddress "\"\""
param **.sink_004.app[0].localPort 1100
param **.sink_004.app[0].replyDelay 0s
param **.sink_005.numApps 1
param **.sink_005.app[0].typename "\"TcpGenericServerApp\""
param **.sink_005.app[0].localAddress "\"\""
param **.sink_005.app[0].localPort 1100
param **.sink_005.app[0].replyDelay 0s
param **.sink_006.numApps 1
param **.sink_006.app[0].typename "\"TcpGenericServerApp\""
param **.sink_006.app[0].localAddress "\"\""
param **.sink_006.app[0].localPort 1100
param **.sink_006.app[0].replyDelay 0s
param **.sink_007.numApps 1
param **.sink_007.app[0].typename "\"TcpGenericServerApp\""
param **.sink_007.app[0].localAddress "\"\""
param **.sink_007.app[0].localPort 1100
param **.sink_007.app[0].replyDelay 0s
param **.sink_008.numApps 1
param **.sink_008.app[0].typename "\"TcpGenericServerApp\""
param **.sink_008.app[0].localAddress "\"\""
param **.sink_008.app[0].localPort 1100
param **.sink_008.app[0].replyDelay 0s
param **.sink_009.numApps 1
param **.sink_009.app[0].typename "\"TcpGenericServerApp\""
param **.sink_009.app[0].localAddress "\"\""
param **.sink_009.app[0].localPort 1100
param **.sink_009.app[0].replyDelay 0s
param **.sink_010.numApps 1
param **.sink_010.app[0].typename "\"TcpGenericServerApp\""
param **.sink_010.app[0].localAddress "\"\""
param **.sink_010.app[0].localPort 1100
param **.sink_010.app[0].replyDelay 0s
param **.sink_011.numApps 1
param **.sink_011.app[0].typename "\"TcpGenericServerApp\""
param **.sink_011.app[0].localAddress "\"\""
param **.sink_011.app[0].localPort 1100
param **.sink_011.app[0].replyDelay 0s
param **.sink_012.numApps 1
param **.sink_012.app[0].typename "\"TcpGenericServerApp\""
param **.sink_012.app[0].localAddress "\"\""
param **.sink_012.app[0].localPort 1100
param **.sink_012.app[0].replyDelay 0s
param **.sink_013.numApps 1
param **.sink_013.app[0].typename "\"TcpGenericServerApp\""
param **.sink_013.app[0].localAddress "\"\""
param **.sink_013.app[0].localPort 1100
param **.sink_013.app[0].replyDelay 0s
param **.sink_014.numApps 1
param **.sink_014.app[0].typename "\"TcpGenericServerApp\""
param **.sink_014.app[0].localAddress "\"\""
param **.sink_014.app[0].localPort 1100
param **.sink_014.app[0].replyDelay 0s
param **.sink_015.numApps 1
param **.sink_015.app[0].typename "\"TcpGenericServerApp\""
param **.sink_015.app[0].localAddress "\"\""
param **.sink_015.app[0].localPort 1100
param **.sink_015.app[0].replyDelay 0s
param **.sink_016.numApps 1
param **.sink_016.app[0].typename "\"TcpGenericServerApp\""
param **.sink_016.app[0].localAddress "\"\""
param **.sink_016.app[0].localPort 1100
param **.sink_016.app[0].replyDelay 0s
param **.sink_017.numApps 1
param **.sink_017.app[0].typename "\"TcpGenericServerApp\""
param **.sink_017.app[0].localAddress "\"\""
param **.sink_017.app[0].localPort 1100
param **.sink_017.app[0].replyDelay 0s
param **.sink_018.numApps 1
param **.sink_018.app[0].typename "\"TcpGenericServerApp\""
param **.sink_018.app[0].localAddress "\"\""
param **.sink_018.app[0].localPort 1100
param **.sink_018.app[0].replyDelay 0s
param **.sink_019.numApps 1
param **.sink_019.app[0].typename "\"TcpGenericServerApp\""
param **.sink_019.app[0].localAddress "\"\""
param **.sink_019.app[0].localPort 1100
param **.sink_019.app[0].replyDelay 0s
param **.sink_020.numApps 1
param **.sink_020.app[0].typename "\"TcpGenericServerApp\""
param **.sink_020.app[0].localAddress "\"\""
param **.sink_020.app[0].localPort 1100
param **.sink_020.app[0].replyDelay 0s
param **.sink_021.numApps 1
param **.sink_021.app[0].typename "\"TcpGenericServerApp\""
param **.sink_021.app[0].localAddress "\"\""
param **.sink_021.app[0].localPort 1100
param **.sink_021.app[0].replyDelay 0s
param **.sink_022.numApps 1
param **.sink_022.app[0].typename "\"TcpGenericServerApp\""
param **.sink_022.app[0].localAddress "\"\""
param **.sink_022.app[0].localPort 1100
param **.sink_022.app[0].replyDelay 0s
param **.sink_023.numApps 1
param **.sink_023.app[0].typename "\"TcpGenericServerApp\""
param **.sink_023.app[0].localAddress "\"\""
param **.sink_023.app[0].localPort 1100
param **.sink_023.app[0].replyDelay 0s
param **.sink_024.numApps 1
param **.sink_024.app[0].typename "\"TcpGenericServerApp\""
param **.sink_024.app[0].localAddress "\"\""
param **.sink_024.app[0].localPort 1100
param **.sink_024.app[0].replyDelay 0s
param **.sink_025.numApps 1
param **.sink_025.app[0].typename "\"TcpGenericServerApp\""
param **.sink_025.app[0].localAddress "\"\""
param **.sink_025.app[0].localPort 1100
param **.sink_025.app[0].replyDelay 0s
param **.sink_026.numApps 1
param **.sink_026.app[0].typename "\"TcpGenericServerApp\""
param **.sink_026.app[0].localAddress "\"\""
param **.sink_026.app[0].localPort 1100
param **.sink_026.app[0].replyDelay 0s
param **.sink_027.numApps 1
param **.sink_027.app[0].typename "\"TcpGenericServerApp\""
param **.sink_027.app[0].localAddress "\"\""
param **.sink_027.app[0].localPort 1100
param **.sink_027.app[0].replyDelay 0s
param **.sink_028.numApps 1
param **.sink_028.app[0].typename "\"TcpGenericServerApp\""
param **.sink_028.app[0].localAddress "\"\""
param **.sink_028.app[0].localPort 1100
param **.sink_028.app[0].replyDelay 0s
param **.sink_029.numApps 1
param **.sink_029.app[0].typename "\"TcpGenericServerApp\""
param **.sink_029.app[0].localAddress "\"\""
param **.sink_029.app[0].localPort 1100
param **.sink_029.app[0].replyDelay 0s
param **.sink_030.numApps 1
param **.sink_030.app[0].typename "\"TcpGenericServerApp\""
param **.sink_030.app[0].localAddress "\"\""
param **.sink_030.app[0].localPort 1100
param **.sink_030.app[0].replyDelay 0s
param **.sink_031.numApps 1
param **.sink_031.app[0].typename "\"TcpGenericServerApp\""
param **.sink_031.app[0].localAddress "\"\""
param **.sink_031.app[0].localPort 1100
param **.sink_031.app[0].replyDelay 0s
param **.sink_032.numApps 1
param **.sink_032.app[0].typename "\"TcpGenericServerApp\""
param **.sink_032.app[0].localAddress "\"\""
param **.sink_032.app[0].localPort 1100
param **.sink_032.app[0].replyDelay 0s
param **.sink_033.numApps 1
param **.sink_033.app[0].typename "\"TcpGenericServerApp\""
param **.sink_033.app[0].localAddress "\"\""
param **.sink_033.app[0].localPort 1100
param **.sink_033.app[0].replyDelay 0s
param **.sink_034.numApps 1
param **.sink_034.app[0].typename "\"TcpGenericServerApp\""
param **.sink_034.app[0].localAddress "\"\""
param **.sink_034.app[0].localPort 1100
param **.sink_034.app[0].replyDelay 0s
param **.sink_035.numApps 1
param **.sink_035.app[0].typename "\"TcpGenericServerApp\""
param **.sink_035.app[0].localAddress "\"\""
param **.sink_035.app[0].localPort 1100
param **.sink_035.app[0].replyDelay 0s
param **.sink_036.numApps 1
param **.sink_036.app[0].typename "\"TcpGenericServerApp\""
param **.sink_036.app[0].localAddress "\"\""
param **.sink_036.app[0].localPort 1100
param **.sink_036.app[0].replyDelay 0s
param **.sink_037.numApps 1
param **.sink_037.app[0].typename "\"TcpGenericServerApp\""
param **.sink_037.app[0].localAddress "\"\""
param **.sink_037.app[0].localPort 1100
param **.sink_037.app[0].replyDelay 0s
param **.sink_038.numApps 1
param **.sink_038.app[0].typename "\"TcpGenericServerApp\""
param **.sink_038.app[0].localAddress "\"\""
param **.sink_038.app[0].localPort 1100
param **.sink_038.app[0].replyDelay 0s
param **.sink_039.numApps 1
param **.sink_039.app[0].typename "\"TcpGenericServerApp\""
param **.sink_039.app[0].localAddress "\"\""
param **.sink_039.app[0].localPort 1100
param **.sink_039.app[0].replyDelay 0s
param **.sink_040.numApps 1
param **.sink_040.app[0].typename "\"TcpGenericServerApp\""
param **.sink_040.app[0].localAddress "\"\""
param **.sink_040.app[0].localPort 1100
param **.sink_040.app[0].replyDelay 0s
param **.sink_041.numApps 1
param **.sink_041.app[0].typename "\"TcpGenericServerApp\""
param **.sink_041.app[0].localAddress "\"\""
param **.sink_041.app[0].localPort 1100
param **.sink_041.app[0].replyDelay 0s
param **.sink_042.numApps 1
param **.sink_042.app[0].typename "\"TcpGenericServerApp\""
param **.sink_042.app[0].localAddress "\"\""
param **.sink_042.app[0].localPort 1100
param **.sink_042.app[0].replyDelay 0s
param **.sink_043.numApps 1
param **.sink_043.app[0].typename "\"TcpGenericServerApp\""
param **.sink_043.app[0].localAddress "\"\""
param **.sink_043.app[0].localPort 1100
param **.sink_043.app[0].replyDelay 0s
param **.sink_044.numApps 1
param **.sink_044.app[0].typename "\"TcpGenericServerApp\""
param **.sink_044.app[0].localAddress "\"\""
param **.sink_044.app[0].localPort 1100
param **.sink_044.app[0].replyDelay 0s
param **.sink_045.numApps 1
param **.sink_045.app[0].typename "\"TcpGenericServerApp\""
param **.sink_045.app[0].localAddress "\"\""
param **.sink_045.app[0].localPort 1100
param **.sink_045.app[0].replyDelay 0s
param **.sink_046.numApps 1
param **.sink_046.app[0].typename "\"TcpGenericServerApp\""
param **.sink_046.app[0].localAddress "\"\""
param **.sink_046.app[0].localPort 1100
param **.sink_046.app[0].replyDelay 0s
param **.sink_047.numApps 1
param **.sink_047.app[0].typename "\"TcpGenericServerApp\""
param **.sink_047.app[0].localAddress "\"\""
param **.sink_047.app[0].localPort 1100
param **.sink_047.app[0].replyDelay 0s
param **.sink_048.numApps 1
param **.sink_048.app[0].typename "\"TcpGenericServerApp\""
param **.sink_048.app[0].localAddress "\"\""
param **.sink_048.app[0].localPort 1100
param **.sink_048.app[0].replyDelay 0s
param **.sink_049.numApps 1
param **.sink_049.app[0].typename "\"TcpGenericServerApp\""
param **.sink_049.app[0].localAddress "\"\""
param **.sink_049.app[0].localPort 1100
param **.sink_049.app[0].replyDelay 0s
param **.sink_050.numApps 1
param **.sink_050.app[0].typename "\"TcpGenericServerApp\""
param **.sink_050.app[0].localAddress "\"\""
param **.sink_050.app[0].localPort 1100
param **.sink_050.app[0].replyDelay 0s
param **.sink_051.numApps 1
param **.sink_051.app[0].typename "\"TcpGenericServerApp\""
param **.sink_051.app[0].localAddress "\"\""
param **.sink_051.app[0].localPort 1100
param **.sink_051.app[0].replyDelay 0s
param **.sink_052.numApps 1
param **.sink_052.app[0].typename "\"TcpGenericServerApp\""
param **.sink_052.app[0].localAddress "\"\""
param **.sink_052.app[0].localPort 1100
param **.sink_052.app[0].replyDelay 0s
param **.sink_053.numApps 1
param **.sink_053.app[0].typename "\"TcpGenericServerApp\""
param **.sink_053.app[0].localAddress "\"\""
param **.sink_053.app[0].localPort 1100
param **.sink_053.app[0].replyDelay 0s
param **.sink_054.numApps 1
param **.sink_054.app[0].typename "\"TcpGenericServerApp\""
param **.sink_054.app[0].localAddress "\"\""
param **.sink_054.app[0].localPort 1100
param **.sink_054.app[0].replyDelay 0s
param **.sink_055.numApps 1
param **.sink_055.app[0].typename "\"TcpGenericServerApp\""
param **.sink_055.app[0].localAddress "\"\""
param **.sink_055.app[0].localPort 1100
param **.sink_055.app[0].replyDelay 0s
param **.sink_056.numApps 1
param **.sink_056.app[0].typename "\"TcpGenericServerApp\""
param **.sink_056.app[0].localAddress "\"\""
param **.sink_056.app[0].localPort 1100
param **.sink_056.app[0].replyDelay 0s
param **.sink_057.numApps 1
param **.sink_057.app[0].typename "\"TcpGenericServerApp\""
param **.sink_057.app[0].localAddress "\"\""
param **.sink_057.app[0].localPort 1100
param **.sink_057.app[0].replyDelay 0s
param **.sink_058.numApps 1
param **.sink_058.app[0].typename "\"TcpGenericServerApp\""
param **.sink_058.app[0].localAddress "\"\""
param **.sink_058.app[0].localPort 1100
param **.sink_058.app[0].replyDelay 0s
param **.sink_059.numApps 1
param **.sink_059.app[0].typename "\"TcpGenericServerApp\""
param **.sink_059.app[0].localAddress "\"\""
param **.sink_059.app[0].localPort 1100
param **.sink_059.app[0].replyDelay 0s
param **.sink_060.numApps 1
param **.sink_060.app[0].typename "\"TcpGenericServerApp\""
param **.sink_060.app[0].localAddress "\"\""
param **.sink_060.app[0].localPort 1100
param **.sink_060.app[0].replyDelay 0s
param **.sink_061.numApps 1
param **.sink_061.app[0].typename "\"TcpGenericServerApp\""
param **.sink_061.app[0].localAddress "\"\""
param **.sink_061.app[0].localPort 1100
param **.sink_061.app[0].replyDelay 0s
param **.sink_062.numApps 1
param **.sink_062.app[0].typename "\"TcpGenericServerApp\""
param **.sink_062.app[0].localAddress "\"\""
param **.sink_062.app[0].localPort 1100
param **.sink_062.app[0].replyDelay 0s
param **.sink_063.numApps 1
param **.sink_063.app[0].typename "\"TcpGenericServerApp\""
param **.sink_063.app[0].localAddress "\"\""
param **.sink_063.app[0].localPort 1100
param **.sink_063.app[0].replyDelay 0s
param **.sink_064.numApps 1
param **.sink_064.app[0].typename "\"TcpGenericServerApp\""
param **.sink_064.app[0].localAddress "\"\""
param **.sink_064.app[0].localPort 1100
param **.sink_064.app[0].replyDelay 0s
param **.sink_065.numApps 1
param **.sink_065.app[0].typename "\"TcpGenericServerApp\""
param **.sink_065.app[0].localAddress "\"\""
param **.sink_065.app[0].localPort 1100
param **.sink_065.app[0].replyDelay 0s
param **.sink_066.numApps 1
param **.sink_066.app[0].typename "\"TcpGenericServerApp\""
param **.sink_066.app[0].localAddress "\"\""
param **.sink_066.app[0].localPort 1100
param **.sink_066.app[0].replyDelay 0s
param **.sink_067.numApps 1
param **.sink_067.app[0].typename "\"TcpGenericServerApp\""
param **.sink_067.app[0].localAddress "\"\""
param **.sink_067.app[0].localPort 1100
param **.sink_067.app[0].replyDelay 0s
param **.sink_068.numApps 1
param **.sink_068.app[0].typename "\"TcpGenericServerApp\""
param **.sink_068.app[0].localAddress "\"\""
param **.sink_068.app[0].localPort 1100
param **.sink_068.app[0].replyDelay 0s
param **.sink_069.numApps 1
param **.sink_069.app[0].typename "\"TcpGenericServerApp\""
param **.sink_069.app[0].localAddress "\"\""
param **.sink_069.app[0].localPort 1100
param **.sink_069.app[0].replyDelay 0s
param **.sink_070.numApps 1
param **.sink_070.app[0].typename "\"TcpGenericServerApp\""
param **.sink_070.app[0].localAddress "\"\""
param **.sink_070.app[0].localPort 1100
param **.sink_070.app[0].replyDelay 0s
param **.sink_071.numApps 1
param **.sink_071.app[0].typename "\"TcpGenericServerApp\""
param **.sink_071.app[0].localAddress "\"\""
param **.sink_071.app[0].localPort 1100
param **.sink_071.app[0].replyDelay 0s
param **.sink_072.numApps 1
param **.sink_072.app[0].typename "\"TcpGenericServerApp\""
param **.sink_072.app[0].localAddress "\"\""
param **.sink_072.app[0].localPort 1100
param **.sink_072.app[0].replyDelay 0s
param **.sink_073.numApps 1
param **.sink_073.app[0].typename "\"TcpGenericServerApp\""
param **.sink_073.app[0].localAddress "\"\""
param **.sink_073.app[0].localPort 1100
param **.sink_073.app[0].replyDelay 0s
param **.sink_074.numApps 1
param **.sink_074.app[0].typename "\"TcpGenericServerApp\""
param **.sink_074.app[0].localAddress "\"\""
param **.sink_074.app[0].localPort 1100
param **.sink_074.app[0].replyDelay 0s
param **.sink_075.numApps 1
param **.sink_075.app[0].typename "\"TcpGenericServerApp\""
param **.sink_075.app[0].localAddress "\"\""
param **.sink_075.app[0].localPort 1100
param **.sink_075.app[0].replyDelay 0s
param **.sink_076.numApps 1
param **.sink_076.app[0].typename "\"TcpGenericServerApp\""
param **.sink_076.app[0].localAddress "\"\""
param **.sink_076.app[0].localPort 1100
param **.sink_076.app[0].replyDelay 0s
param **.sink_077.numApps 1
param **.sink_077.app[0].typename "\"TcpGenericServerApp\""
param **.sink_077.app[0].localAddress "\"\""
param **.sink_077.app[0].localPort 1100
param **.sink_077.app[0].replyDelay 0s
param **.sink_078.numApps 1
param **.sink_078.app[0].typename "\"TcpGenericServerApp\""
param **.sink_078.app[0].localAddress "\"\""
param **.sink_078.app[0].localPort 1100
param **.sink_078.app[0].replyDelay 0s
param **.sink_079.numApps 1
param **.sink_079.app[0].typename "\"TcpGenericServerApp\""
param **.sink_079.app[0].localAddress "\"\""
param **.sink_079.app[0].localPort 1100
param **.sink_079.app[0].replyDelay 0s
param **.sink_080.numApps 1
param **.sink_080.app[0].typename "\"TcpGenericServerApp\""
param **.sink_080.app[0].localAddress "\"\""
param **.sink_080.app[0].localPort 1100
param **.sink_080.app[0].replyDelay 0s
param **.sink_081.numApps 1
param **.sink_081.app[0].typename "\"TcpGenericServerApp\""
param **.sink_081.app[0].localAddress "\"\""
param **.sink_081.app[0].localPort 1100
param **.sink_081.app[0].replyDelay 0s
param **.sink_082.numApps 1
param **.sink_082.app[0].typename "\"TcpGenericServerApp\""
param **.sink_082.app[0].localAddress "\"\""
param **.sink_082.app[0].localPort 1100
param **.sink_082.app[0].replyDelay 0s
param **.sink_083.numApps 1
param **.sink_083.app[0].typename "\"TcpGenericServerApp\""
param **.sink_083.app[0].localAddress "\"\""
param **.sink_083.app[0].localPort 1100
param **.sink_083.app[0].replyDelay 0s
param **.sink_084.numApps 1
param **.sink_084.app[0].typename "\"TcpGenericServerApp\""
param **.sink_084.app[0].localAddress "\"\""
param **.sink_084.app[0].localPort 1100
param **.sink_084.app[0].replyDelay 0s
param **.sink_085.numApps 1
param **.sink_085.app[0].typename "\"TcpGenericServerApp\""
param **.sink_085.app[0].localAddress "\"\""
param **.sink_085.app[0].localPort 1100
param **.sink_085.app[0].replyDelay 0s
param **.sink_086.numApps 1
param **.sink_086.app[0].typename "\"TcpGenericServerApp\""
param **.sink_086.app[0].localAddress "\"\""
param **.sink_086.app[0].localPort 1100
param **.sink_086.app[0].replyDelay 0s
param **.sink_087.numApps 1
param **.sink_087.app[0].typename "\"TcpGenericServerApp\""
param **.sink_087.app[0].localAddress "\"\""
param **.sink_087.app[0].localPort 1100
param **.sink_087.app[0].replyDelay 0s
param **.sink_088.numApps 1
param **.sink_088.app[0].typename "\"TcpGenericServerApp\""
param **.sink_088.app[0].localAddress "\"\""
param **.sink_088.app[0].localPort 1100
param **.sink_088.app[0].replyDelay 0s
param **.sink_089.numApps 1
param **.sink_089.app[0].typename "\"TcpGenericServerApp\""
param **.sink_089.app[0].localAddress "\"\""
param **.sink_089.app[0].localPort 1100
param **.sink_089.app[0].replyDelay 0s
param **.sink_090.numApps 1
param **.sink_090.app[0].typename "\"TcpGenericServerApp\""
param **.sink_090.app[0].localAddress "\"\""
param **.sink_090.app[0].localPort 1100
param **.sink_090.app[0].replyDelay 0s
param **.sink_091.numApps 1
param **.sink_091.app[0].typename "\"TcpGenericServerApp\""
param **.sink_091.app[0].localAddress "\"\""
param **.sink_091.app[0].localPort 1100
param **.sink_091.app[0].replyDelay 0s
param **.sink_092.numApps 1
param **.sink_092.app[0].typename "\"TcpGenericServerApp\""
param **.sink_092.app[0].localAddress "\"\""
param **.sink_092.app[0].localPort 1100
param **.sink_092.app[0].replyDelay 0s
param **.sink_093.numApps 1
param **.sink_093.app[0].typename "\"TcpGenericServerApp\""
param **.sink_093.app[0].localAddress "\"\""
param **.sink_093.app[0].localPort 1100
param **.sink_093.app[0].replyDelay 0s
param **.sink_094.numApps 1
param **.sink_094.app[0].typename "\"TcpGenericServerApp\""
param **.sink_094.app[0].localAddress "\"\""
param **.sink_094.app[0].localPort 1100
param **.sink_094.app[0].replyDelay 0s
param **.sink_095.numApps 1
param **.sink_095.app[0].typename "\"TcpGenericServerApp\""
param **.sink_095.app[0].localAddress "\"\""
param **.sink_095.app[0].localPort 1100
param **.sink_095.app[0].replyDelay 0s
param **.sink_096.numApps 1
param **.sink_096.app[0].typename "\"TcpGenericServerApp\""
param **.sink_096.app[0].localAddress "\"\""
param **.sink_096.app[0].localPort 1100
param **.sink_096.app[0].replyDelay 0s
param **.sink_097.numApps 1
param **.sink_097.app[0].typename "\"TcpGenericServerApp\""
param **.sink_097.app[0].localAddress "\"\""
param **.sink_097.app[0].localPort 1100
param **.sink_097.app[0].replyDelay 0s
param **.sink_098.numApps 1
param **.sink_098.app[0].typename "\"TcpGenericServerApp\""
param **.sink_098.app[0].localAddress "\"\""
param **.sink_098.app[0].localPort 1100
param **.sink_098.app[0].replyDelay 0s
param **.sink_099.numApps 1
param **.sink_099.app[0].typename "\"TcpGenericServerApp\""
param **.sink_099.app[0].localAddress "\"\""
param **.sink_099.app[0].localPort 1100
param **.sink_099.app[0].replyDelay 0s
param **.sink_100.numApps 1
param **.sink_100.app[0].typename "\"TcpGenericServerApp\""
param **.sink_100.app[0].localAddress "\"\""
param **.sink_100.app[0].localPort 1100
param **.sink_100.app[0].replyDelay 0s
param **.sink_101.numApps 1
param **.sink_101.app[0].typename "\"TcpGenericServerApp\""
param **.sink_101.app[0].localAddress "\"\""
param **.sink_101.app[0].localPort 1100
param **.sink_101.app[0].replyDelay 0s
param **.sink_102.numApps 1
param **.sink_102.app[0].typename "\"TcpGenericServerApp\""
param **.sink_102.app[0].localAddress "\"\""
param **.sink_102.app[0].localPort 1100
param **.sink_102.app[0].replyDelay 0s
param **.sink_103.numApps 1
param **.sink_103.app[0].typename "\"TcpGenericServerApp\""
param **.sink_103.app[0].localAddress "\"\""
param **.sink_103.app[0].localPort 1100
param **.sink_103.app[0].replyDelay 0s
param **.sink_104.numApps 1
param **.sink_104.app[0].typename "\"TcpGenericServerApp\""
param **.sink_104.app[0].localAddress "\"\""
param **.sink_104.app[0].localPort 1100
param **.sink_104.app[0].replyDelay 0s
param **.sink_105.numApps 1
param **.sink_105.app[0].typename "\"TcpGenericServerApp\""
param **.sink_105.app[0].localAddress "\"\""
param **.sink_105.app[0].localPort 1100
param **.sink_105.app[0].replyDelay 0s
param **.sink_106.numApps 1
param **.sink_106.app[0].typename "\"TcpGenericServerApp\""
param **.sink_106.app[0].localAddress "\"\""
param **.sink_106.app[0].localPort 1100
param **.sink_106.app[0].replyDelay 0s
param **.sink_107.numApps 1
param **.sink_107.app[0].typename "\"TcpGenericServerApp\""
param **.sink_107.app[0].localAddress "\"\""
param **.sink_107.app[0].localPort 1100
param **.sink_107.app[0].replyDelay 0s
param **.sink_108.numApps 1
param **.sink_108.app[0].typename "\"TcpGenericServerApp\""
param **.sink_108.app[0].localAddress "\"\""
param **.sink_108.app[0].localPort 1100
param **.sink_108.app[0].replyDelay 0s
param **.sink_109.numApps 1
param **.sink_109.app[0].typename "\"TcpGenericServerApp\""
param **.sink_109.app[0].localAddress "\"\""
param **.sink_109.app[0].localPort 1100
param **.sink_109.app[0].replyDelay 0s
param **.sink_110.numApps 1
param **.sink_110.app[0].typename "\"TcpGenericServerApp\""
param **.sink_110.app[0].localAddress "\"\""
param **.sink_110.app[0].localPort 1100
param **.sink_110.app[0].replyDelay 0s
param **.sink_111.numApps 1
param **.sink_111.app[0].typename "\"TcpGenericServerApp\""
param **.sink_111.app[0].localAddress "\"\""
param **.sink_111.app[0].localPort 1100
param **.sink_111.app[0].replyDelay 0s
param **.sink_112.numApps 1
param **.sink_112.app[0].typename "\"TcpGenericServerApp\""
param **.sink_112.app[0].localAddress "\"\""
param **.sink_112.app[0].localPort 1100
param **.sink_112.app[0].replyDelay 0s
param **.sink_113.numApps 1
param **.sink_113.app[0].typename "\"TcpGenericServerApp\""
param **.sink_113.app[0].localAddress "\"\""
param **.sink_113.app[0].localPort 1100
param **.sink_113.app[0].replyDelay 0s
param **.sink_114.numApps 1
param **.sink_114.app[0].typename "\"TcpGenericServerApp\""
param **.sink_114.app[0].localAddress "\"\""
param **.sink_114.app[0].localPort 1100
param **.sink_114.app[0].replyDelay 0s
param **.sink_115.numApps 1
param **.sink_115.app[0].typename "\"TcpGenericServerApp\""
param **.sink_115.app[0].localAddress "\"\""
param **.sink_115.app[0].localPort 1100
param **.sink_115.app[0].replyDelay 0s
param **.sink_116.numApps 1
param **.sink_116.app[0].typename "\"TcpGenericServerApp\""
param **.sink_116.app[0].localAddress "\"\""
param **.sink_116.app[0].localPort 1100
param **.sink_116.app[0].replyDelay 0s
param **.sink_117.numApps 1
param **.sink_117.app[0].typename "\"TcpGenericServerApp\""
param **.sink_117.app[0].localAddress "\"\""
param **.sink_117.app[0].localPort 1100
param **.sink_117.app[0].replyDelay 0s
param **.sink_118.numApps 1
param **.sink_118.app[0].typename "\"TcpGenericServerApp\""
param **.sink_118.app[0].localAddress "\"\""
param **.sink_118.app[0].localPort 1100
param **.sink_118.app[0].replyDelay 0s
param **.sink_119.numApps 1
param **.sink_119.app[0].typename "\"TcpGenericServerApp\""
param **.sink_119.app[0].localAddress "\"\""
param **.sink_119.app[0].localPort 1100
param **.sink_119.app[0].replyDelay 0s
param **.sink_120.numApps 1
param **.sink_120.app[0].typename "\"TcpGenericServerApp\""
param **.sink_120.app[0].localAddress "\"\""
param **.sink_120.app[0].localPort 1100
param **.sink_120.app[0].replyDelay 0s
param **.sink_121.numApps 1
param **.sink_121.app[0].typename "\"TcpGenericServerApp\""
param **.sink_121.app[0].localAddress "\"\""
param **.sink_121.app[0].localPort 1100
param **.sink_121.app[0].replyDelay 0s
param **.sink_122.numApps 1
param **.sink_122.app[0].typename "\"TcpGenericServerApp\""
param **.sink_122.app[0].localAddress "\"\""
param **.sink_122.app[0].localPort 1100
param **.sink_122.app[0].replyDelay 0s
param **.sink_123.numApps 1
param **.sink_123.app[0].typename "\"TcpGenericServerApp\""
param **.sink_123.app[0].localAddress "\"\""
param **.sink_123.app[0].localPort 1100
param **.sink_123.app[0].replyDelay 0s
param **.sink_124.numApps 1
param **.sink_124.app[0].typename "\"TcpGenericServerApp\""
param **.sink_124.app[0].localAddress "\"\""
param **.sink_124.app[0].localPort 1100
param **.sink_124.app[0].replyDelay 0s
param **.sink_125.numApps 1
param **.sink_125.app[0].typename "\"TcpGenericServerApp\""
param **.sink_125.app[0].localAddress "\"\""
param **.sink_125.app[0].localPort 1100
param **.sink_125.app[0].replyDelay 0s
param **.sink_126.numApps 1
param **.sink_126.app[0].typename "\"TcpGenericServerApp\""
param **.sink_126.app[0].localAddress "\"\""
param **.sink_126.app[0].localPort 1100
param **.sink_126.app[0].replyDelay 0s
param **.sink_127.numApps 1
param **.sink_127.app[0].typename "\"TcpGenericServerApp\""
param **.sink_127.app[0].localAddress "\"\""
param **.sink_127.app[0].localPort 1100
param **.sink_127.app[0].replyDelay 0s
param **.sink_128.numApps 1
param **.sink_128.app[0].typename "\"TcpGenericServerApp\""
param **.sink_128.app[0].localAddress "\"\""
param **.sink_128.app[0].localPort 1100
param **.sink_128.app[0].replyDelay 0s
param **.sink_129.numApps 1
param **.sink_129.app[0].typename "\"TcpGenericServerApp\""
param **.sink_129.app[0].localAddress "\"\""
param **.sink_129.app[0].localPort 1100
param **.sink_129.app[0].replyDelay 0s
param **.sink_130.numApps 1
param **.sink_130.app[0].typename "\"TcpGenericServerApp\""
param **.sink_130.app[0].localAddress "\"\""
param **.sink_130.app[0].localPort 1100
param **.sink_130.app[0].replyDelay 0s
param **.sink_131.numApps 1
param **.sink_131.app[0].typename "\"TcpGenericServerApp\""
param **.sink_131.app[0].localAddress "\"\""
param **.sink_131.app[0].localPort 1100
param **.sink_131.app[0].replyDelay 0s
param **.sink_132.numApps 1
param **.sink_132.app[0].typename "\"TcpGenericServerApp\""
param **.sink_132.app[0].localAddress "\"\""
param **.sink_132.app[0].localPort 1100
param **.sink_132.app[0].replyDelay 0s
param **.sink_133.numApps 1
param **.sink_133.app[0].typename "\"TcpGenericServerApp\""
param **.sink_133.app[0].localAddress "\"\""
param **.sink_133.app[0].localPort 1100
param **.sink_133.app[0].replyDelay 0s
param **.sink_134.numApps 1
param **.sink_134.app[0].typename "\"TcpGenericServerApp\""
param **.sink_134.app[0].localAddress "\"\""
param **.sink_134.app[0].localPort 1100
param **.sink_134.app[0].replyDelay 0s
param **.sink_135.numApps 1
param **.sink_135.app[0].typename "\"TcpGenericServerApp\""
param **.sink_135.app[0].localAddress "\"\""
param **.sink_135.app[0].localPort 1100
param **.sink_135.app[0].replyDelay 0s
param **.sink_136.numApps 1
param **.sink_136.app[0].typename "\"TcpGenericServerApp\""
param **.sink_136.app[0].localAddress "\"\""
param **.sink_136.app[0].localPort 1100
param **.sink_136.app[0].replyDelay 0s
param **.sink_137.numApps 1
param **.sink_137.app[0].typename "\"TcpGenericServerApp\""
param **.sink_137.app[0].localAddress "\"\""
param **.sink_137.app[0].localPort 1100
param **.sink_137.app[0].replyDelay 0s
param **.sink_138.numApps 1
param **.sink_138.app[0].typename "\"TcpGenericServerApp\""
param **.sink_138.app[0].localAddress "\"\""
param **.sink_138.app[0].localPort 1100
param **.sink_138.app[0].replyDelay 0s
param **.sink_139.numApps 1
param **.sink_139.app[0].typename "\"TcpGenericServerApp\""
param **.sink_139.app[0].localAddress "\"\""
param **.sink_139.app[0].localPort 1100
param **.sink_139.app[0].replyDelay 0s
param **.sink_140.numApps 1
param **.sink_140.app[0].typename "\"TcpGenericServerApp\""
param **.sink_140.app[0].localAddress "\"\""
param **.sink_140.app[0].localPort 1100
param **.sink_140.app[0].replyDelay 0s
param **.sink_141.numApps 1
param **.sink_141.app[0].typename "\"TcpGenericServerApp\""
param **.sink_141.app[0].localAddress "\"\""
param **.sink_141.app[0].localPort 1100
param **.sink_141.app[0].replyDelay 0s
param **.sink_142.numApps 1
param **.sink_142.app[0].typename "\"TcpGenericServerApp\""
param **.sink_142.app[0].localAddress "\"\""
param **.sink_142.app[0].localPort 1100
param **.sink_142.app[0].replyDelay 0s
param **.sink_143.numApps 1
param **.sink_143.app[0].typename "\"TcpGenericServerApp\""
param **.sink_143.app[0].localAddress "\"\""
param **.sink_143.app[0].localPort 1100
param **.sink_143.app[0].replyDelay 0s
param **.sink_144.numApps 1
param **.sink_144.app[0].typename "\"TcpGenericServerApp\""
param **.sink_144.app[0].localAddress "\"\""
param **.sink_144.app[0].localPort 1100
param **.sink_144.app[0].replyDelay 0s
param **.sink_145.numApps 1
param **.sink_145.app[0].typename "\"TcpGenericServerApp\""
param **.sink_145.app[0].localAddress "\"\""
param **.sink_145.app[0].localPort 1100
param **.sink_145.app[0].replyDelay 0s
param **.sink_146.numApps 1
param **.sink_146.app[0].typename "\"TcpGenericServerApp\""
param **.sink_146.app[0].localAddress "\"\""
param **.sink_146.app[0].localPort 1100
param **.sink_146.app[0].replyDelay 0s
param **.sink_147.numApps 1
param **.sink_147.app[0].typename "\"TcpGenericServerApp\""
param **.sink_147.app[0].localAddress "\"\""
param **.sink_147.app[0].localPort 1100
param **.sink_147.app[0].replyDelay 0s
param **.source_000.numApps 1
param **.source_000.app[0].typename "\"TcpBasicClientApp\""
param **.source_000.app[0].localAddress "\"\""
param **.source_000.app[0].connectAddress "\"sink_000\""
param **.source_000.app[0].connectPort 1100
param **.source_000.app[0].startTime 0s
param **.source_000.app[0].idleInterval 1000s
param **.source_000.app[0].requestLength 1300B
param **.source_000.app[0].replyLength 20B
param **.source_000.app[0].thinkTime 0s
param **.source_000.app[0].numRequestsPerSession 10
param **.source_001.numApps 1
param **.source_001.app[0].typename "\"TcpBasicClientApp\""
param **.source_001.app[0].localAddress "\"\""
param **.source_001.app[0].connectAddress "\"sink_001\""
param **.source_001.app[0].connectPort 1100
param **.source_001.app[0].startTime 0s
param **.source_001.app[0].idleInterval 1000s
param **.source_001.app[0].requestLength 1300B
param **.source_001.app[0].replyLength 20B
param **.source_001.app[0].thinkTime 0s
param **.source_001.app[0].numRequestsPerSession 95
param **.source_002.numApps 1
param **.source_002.app[0].typename "\"TcpBasicClientApp\""
param **.source_002.app[0].localAddress "\"\""
param **.source_002.app[0].connectAddress "\"sink_002\""
param **.source_002.app[0].connectPort 1100
param **.source_002.app[0].startTime 0s
param **.source_002.app[0].idleInterval 1000s
param **.source_002.app[0].requestLength 1300B
param **.source_002.app[0].replyLength 20B
param **.source_002.app[0].thinkTime 0s
param **.source_002.app[0].numRequestsPerSession 665
param **.source_003.numApps 1
param **.source_003.app[0].typename "\"TcpBasicClientApp\""
param **.source_003.app[0].localAddress "\"\""
param **.source_003.app[0].connectAddress "\"sink_003\""
param **.source_003.app[0].connectPort 1100
param **.source_003.app[0].startTime 0s
param **.source_003.app[0].idleInterval 1000s
param **.source_003.app[0].requestLength 1300B
param **.source_003.app[0].replyLength 20B
param **.source_003.app[0].thinkTime 0s
param **.source_003.app[0].numRequestsPerSession 412
param **.source_004.numApps 1
param **.source_004.app[0].typename "\"TcpBasicClientApp\""
param **.source_004.app[0].localAddress "\"\""
param **.source_004.app[0].connectAddress "\"sink_004\""
param **.source_004.app[0].connectPort 1100
param **.source_004.app[0].startTime 0s
param **.source_004.app[0].idleInterval 1000s
param **.source_004.app[0].requestLength 1300B
param **.source_004.app[0].replyLength 20B
param **.source_004.app[0].thinkTime 0s
param **.source_004.app[0].numRequestsPerSession 359
param **.source_005.numApps 1
param **.source_005.app[0].typename "\"TcpBasicClientApp\""
param **.source_005.app[0].localAddress "\"\""
param **.source_005.app[0].connectAddress "\"sink_005\""
param **.source_005.app[0].connectPort 1100
param **.source_005.app[0].startTime 0s
param **.source_005.app[0].idleInterval 1000s
param **.source_005.app[0].requestLength 1300B
param **.source_005.app[0].replyLength 20B
param **.source_005.app[0].thinkTime 0s
param **.source_005.app[0].numRequestsPerSession 48
param **.source_006.numApps 1
param **.source_006.app[0].typename "\"TcpBasicClientApp\""
param **.source_006.app[0].localAddress "\"\""
param **.source_006.app[0].connectAddress "\"sink_006\""
param **.source_006.app[0].connectPort 1100
param **.source_006.app[0].startTime 0s
param **.source_006.app[0].idleInterval 1000s
param **.source_006.app[0].requestLength 1300B
param **.source_006.app[0].replyLength 20B
param **.source_006.app[0].thinkTime 0s
param **.source_006.app[0].numRequestsPerSession 73
param **.source_007.numApps 1
param **.source_007.app[0].typename "\"TcpBasicClientApp\""
param **.source_007.app[0].localAddress "\"\""
param **.source_007.app[0].connectAddress "\"sink_007\""
param **.source_007.app[0].connectPort 1100
param **.source_007.app[0].startTime 0s
param **.source_007.app[0].idleInterval 1000s
param **.source_007.app[0].requestLength 1300B
param **.source_007.app[0].replyLength 20B
param **.source_007.app[0].thinkTime 0s
param **.source_007.app[0].numRequestsPerSession 635
param **.source_008.numApps 1
param **.source_008.app[0].typename "\"TcpBasicClientApp\""
param **.source_008.app[0].localAddress "\"\""
param **.source_008.app[0].connectAddress "\"sink_008\""
param **.source_008.app[0].connectPort 1100
param **.source_008.app[0].startTime 0s
param **.source_008.app[0].idleInterval 1000s
param **.source_008.app[0].requestLength 1300B
param **.source_008.app[0].replyLength 20B
param **.source_008.app[0].thinkTime 0s
param **.source_008.app[0].numRequestsPerSession 2
param **.source_009.numApps 1
param **.source_009.app[0].typename "\"TcpBasicClientApp\""
param **.source_009.app[0].localAddress "\"\""
param **.source_009.app[0].connectAddress "\"sink_009\""
param **.source_009.app[0].connectPort 1100
param **.source_009.app[0].startTime 0s
param **.source_009.app[0].idleInterval 1000s
param **.source_009.app[0].requestLength 1300B
param **.source_009.app[0].replyLength 20B
param **.source_009.app[0].thinkTime 0s
param **.source_009.app[0].numRequestsPerSession 4
param **.source_010.numApps 1
param **.source_010.app[0].typename "\"TcpBasicClientApp\""
param **.source_010.app[0].localAddress "\"\""
param **.source_010.app[0].connectAddress "\"sink_010\""
param **.source_010.app[0].connectPort 1100
param **.source_010.app[0].startTime 0s
param **.source_010.app[0].idleInterval 1000s
param **.source_010.app[0].requestLength 1300B
param **.source_010.app[0].replyLength 20B
param **.source_010.app[0].thinkTime 0s
param **.source_010.app[0].numRequestsPerSession 2
param **.source_011.numApps 1
param **.source_011.app[0].typename "\"TcpBasicClientApp\""
param **.source_011.app[0].localAddress "\"\""
param **.source_011.app[0].connectAddress "\"sink_011\""
param **.source_011.app[0].connectPort 1100
param **.source_011.app[0].startTime 0s
param **.source_011.app[0].idleInterval 1000s
param **.source_011.app[0].requestLength 1300B
param **.source_011.app[0].replyLength 20B
param **.source_011.app[0].thinkTime 0s
param **.source_011.app[0].numRequestsPerSession 8
param **.source_012.numApps 1
param **.source_012.app[0].typename "\"TcpBasicClientApp\""
param **.source_012.app[0].localAddress "\"\""
param **.source_012.app[0].connectAddress "\"sink_012\""
param **.source_012.app[0].connectPort 1100
param **.source_012.app[0].startTime 0s
param **.source_012.app[0].idleInterval 1000s
param **.source_012.app[0].requestLength 1300B
param **.source_012.app[0].replyLength 20B
param **.source_012.app[0].thinkTime 0s
param **.source_012.app[0].numRequestsPerSession 5
param **.source_013.numApps 1
param **.source_013.app[0].typename "\"TcpBasicClientApp\""
param **.source_013.app[0].localAddress "\"\""
param **.source_013.app[0].connectAddress "\"sink_013\""
param **.source_013.app[0].connectPort 1100
param **.source_013.app[0].startTime 0s
param **.source_013.app[0].idleInterval 1000s
param **.source_013.app[0].requestLength 1300B
param **.source_013.app[0].replyLength 20B
param **.source_013.app[0].thinkTime 0s
param **.source_013.app[0].numRequestsPerSession 7
param **.source_014.numApps 1
param **.source_014.app[0].typename "\"TcpBasicClientApp\""
param **.source_014.app[0].localAddress "\"\""
param **.source_014.app[0].connectAddress "\"sink_014\""
param **.source_014.app[0].connectPort 1100
param **.source_014.app[0].startTime 0s
param **.source_014.app[0].idleInterval 1000s
param **.source_014.app[0].requestLength 1300B
param **.source_014.app[0].replyLength 20B
param **.source_014.app[0].thinkTime 0s
param **.source_014.app[0].numRequestsPerSession 5
param **.source_015.numApps 1
param **.source_015.app[0].typename "\"TcpBasicClientApp\""
param **.source_015.app[0].localAddress "\"\""
param **.source_015.app[0].connectAddress "\"sink_015\""
param **.source_015.app[0].connectPort 1100
param **.source_015.app[0].startTime 0s
param **.source_015.app[0].idleInterval 1000s
param **.source_015.app[0].requestLength 1300B
param **.source_015.app[0].replyLength 20B
param **.source_015.app[0].thinkTime 0s
param **.source_015.app[0].numRequestsPerSession 171
param **.source_016.numApps 1
param **.source_016.app[0].typename "\"TcpBasicClientApp\""
param **.source_016.app[0].localAddress "\"\""
param **.source_016.app[0].connectAddress "\"sink_016\""
param **.source_016.app[0].connectPort 1100
param **.source_016.app[0].startTime 0s
param **.source_016.app[0].idleInterval 1000s
param **.source_016.app[0].requestLength 1300B
param **.source_016.app[0].replyLength 20B
param **.source_016.app[0].thinkTime 0s
param **.source_016.app[0].numRequestsPerSession 2
param **.source_017.numApps 1
param **.source_017.app[0].typename "\"TcpBasicClientApp\""
param **.source_017.app[0].localAddress "\"\""
param **.source_017.app[0].connectAddress "\"sink_017\""
param **.source_017.app[0].connectPort 1100
param **.source_017.app[0].startTime 0s
param **.source_017.app[0].idleInterval 1000s
param **.source_017.app[0].requestLength 1300B
param **.source_017.app[0].replyLength 20B
param **.source_017.app[0].thinkTime 0s
param **.source_017.app[0].numRequestsPerSession 6
param **.source_018.numApps 1
param **.source_018.app[0].typename "\"TcpBasicClientApp\""
param **.source_018.app[0].localAddress "\"\""
param **.source_018.app[0].connectAddress "\"sink_018\""
param **.source_018.app[0].connectPort 1100
param **.source_018.app[0].startTime 0s
param **.source_018.app[0].idleInterval 1000s
param **.source_018.app[0].requestLength 1300B
param **.source_018.app[0].replyLength 20B
param **.source_018.app[0].thinkTime 0s
param **.source_018.app[0].numRequestsPerSession 21
param **.source_019.numApps 1
param **.source_019.app[0].typename "\"TcpBasicClientApp\""
param **.source_019.app[0].localAddress "\"\""
param **.source_019.app[0].connectAddress "\"sink_019\""
param **.source_019.app[0].connectPort 1100
param **.source_019.app[0].startTime 0s
param **.source_019.app[0].idleInterval 1000s
param **.source_019.app[0].requestLength 1300B
param **.source_019.app[0].replyLength 20B
param **.source_019.app[0].thinkTime 0s
param **.source_019.app[0].numRequestsPerSession 3
param **.source_020.numApps 1
param **.source_020.app[0].typename "\"TcpBasicClientApp\""
param **.source_020.app[0].localAddress "\"\""
param **.source_020.app[0].connectAddress "\"sink_020\""
param **.source_020.app[0].connectPort 1100
param **.source_020.app[0].startTime 0s
param **.source_020.app[0].idleInterval 1000s
param **.source_020.app[0].requestLength 1300B
param **.source_020.app[0].replyLength 20B
param **.source_020.app[0].thinkTime 0s
param **.source_020.app[0].numRequestsPerSession 27
param **.source_021.numApps 1
param **.source_021.app[0].typename "\"TcpBasicClientApp\""
param **.source_021.app[0].localAddress "\"\""
param **.source_021.app[0].connectAddress "\"sink_021\""
param **.source_021.app[0].connectPort 1100
param **.source_021.app[0].startTime 0s
param **.source_021.app[0].idleInterval 1000s
param **.source_021.app[0].requestLength 1300B
param **.source_021.app[0].replyLength 20B
param **.source_021.app[0].thinkTime 0s
param **.source_021.app[0].numRequestsPerSession 113
param **.source_022.numApps 1
param **.source_022.app[0].typename "\"TcpBasicClientApp\""
param **.source_022.app[0].localAddress "\"\""
param **.source_022.app[0].connectAddress "\"sink_022\""
param **.source_022.app[0].connectPort 1100
param **.source_022.app[0].startTime 0s
param **.source_022.app[0].idleInterval 1000s
param **.source_022.app[0].requestLength 1300B
param **.source_022.app[0].replyLength 20B
param **.source_022.app[0].thinkTime 0s
param **.source_022.app[0].numRequestsPerSession 12
param **.source_023.numApps 1
param **.source_023.app[0].typename "\"TcpBasicClientApp\""
param **.source_023.app[0].localAddress "\"\""
param **.source_023.app[0].connectAddress "\"sink_023\""
param **.source_023.app[0].connectPort 1100
param **.source_023.app[0].startTime 0s
param **.source_023.app[0].idleInterval 1000s
param **.source_023.app[0].requestLength 1300B
param **.source_023.app[0].replyLength 20B
param **.source_023.app[0].thinkTime 0s
param **.source_023.app[0].numRequestsPerSession 2
param **.source_024.numApps 1
param **.source_024.app[0].typename "\"TcpBasicClientApp\""
param **.source_024.app[0].localAddress "\"\""
param **.source_024.app[0].connectAddress "\"sink_024\""
param **.source_024.app[0].connectPort 1100
param **.source_024.app[0].startTime 0s
param **.source_024.app[0].idleInterval 1000s
param **.source_024.app[0].requestLength 1300B
param **.source_024.app[0].replyLength 20B
param **.source_024.app[0].thinkTime 0s
param **.source_024.app[0].numRequestsPerSession 214
param **.source_025.numApps 1
param **.source_025.app[0].typename "\"TcpBasicClientApp\""
param **.source_025.app[0].localAddress "\"\""
param **.source_025.app[0].connectAddress "\"sink_025\""
param **.source_025.app[0].connectPort 1100
param **.source_025.app[0].startTime 0s
param **.source_025.app[0].idleInterval 1000s
param **.source_025.app[0].requestLength 1300B
param **.source_025.app[0].replyLength 20B
param **.source_025.app[0].thinkTime 0s
param **.source_025.app[0].numRequestsPerSession 5
param **.source_026.numApps 1
param **.source_026.app[0].typename "\"TcpBasicClientApp\""
param **.source_026.app[0].localAddress "\"\""
param **.source_026.app[0].connectAddress "\"sink_026\""
param **.source_026.app[0].connectPort 1100
param **.source_026.app[0].startTime 0s
param **.source_026.app[0].idleInterval 1000s
param **.source_026.app[0].requestLength 1300B
param **.source_026.app[0].replyLength 20B
param **.source_026.app[0].thinkTime 0s
param **.source_026.app[0].numRequestsPerSession 9
param **.source_027.numApps 1
param **.source_027.app[0].typename "\"TcpBasicClientApp\""
param **.source_027.app[0].localAddress "\"\""
param **.source_027.app[0].connectAddress "\"sink_027\""
param **.source_027.app[0].connectPort 1100
param **.source_027.app[0].startTime 0s
param **.source_027.app[0].idleInterval 1000s
param **.source_027.app[0].requestLength 1300B
param **.source_027.app[0].replyLength 20B
param **.source_027.app[0].thinkTime 0s
param **.source_027.app[0].numRequestsPerSession 12
param **.source_028.numApps 1
param **.source_028.app[0].typename "\"TcpBasicClientApp\""
param **.source_028.app[0].localAddress "\"\""
param **.source_028.app[0].connectAddress "\"sink_028\""
param **.source_028.app[0].connectPort 1100
param **.source_028.app[0].startTime 0s
param **.source_028.app[0].idleInterval 1000s
param **.source_028.app[0].requestLength 1300B
param **.source_028.app[0].replyLength 20B
param **.source_028.app[0].thinkTime 0s
param **.source_028.app[0].numRequestsPerSession 7
param **.source_029.numApps 1
param **.source_029.app[0].typename "\"TcpBasicClientApp\""
param **.source_029.app[0].localAddress "\"\""
param **.source_029.app[0].connectAddress "\"sink_029\""
param **.source_029.app[0].connectPort 1100
param **.source_029.app[0].startTime 0s
param **.source_029.app[0].idleInterval 1000s
param **.source_029.app[0].requestLength 1300B
param **.source_029.app[0].replyLength 20B
param **.source_029.app[0].thinkTime 0s
param **.source_029.app[0].numRequestsPerSession 3
param **.source_030.numApps 1
param **.source_030.app[0].typename "\"TcpBasicClientApp\""
param **.source_030.app[0].localAddress "\"\""
param **.source_030.app[0].connectAddress "\"sink_030\""
param **.source_030.app[0].connectPort 1100
param **.source_030.app[0].startTime 0s
param **.source_030.app[0].idleInterval 1000s
param **.source_030.app[0].requestLength 1300B
param **.source_030.app[0].replyLength 20B
param **.source_030.app[0].thinkTime 0s
param **.source_030.app[0].numRequestsPerSession 23
param **.source_031.numApps 1
param **.source_031.app[0].typename "\"TcpBasicClientApp\""
param **.source_031.app[0].localAddress "\"\""
param **.source_031.app[0].connectAddress "\"sink_031\""
param **.source_031.app[0].connectPort 1100
param **.source_031.app[0].startTime 0s
param **.source_031.app[0].idleInterval 1000s
param **.source_031.app[0].requestLength 1300B
param **.source_031.app[0].replyLength 20B
param **.source_031.app[0].thinkTime 0s
param **.source_031.app[0].numRequestsPerSession 3
param **.source_032.numApps 1
param **.source_032.app[0].typename "\"TcpBasicClientApp\""
param **.source_032.app[0].localAddress "\"\""
param **.source_032.app[0].connectAddress "\"sink_032\""
param **.source_032.app[0].connectPort 1100
param **.source_032.app[0].startTime 0s
param **.source_032.app[0].idleInterval 1000s
param **.source_032.app[0].requestLength 1300B
param **.source_032.app[0].replyLength 20B
param **.source_032.app[0].thinkTime 0s
param **.source_032.app[0].numRequestsPerSession 4
param **.source_033.numApps 1
param **.source_033.app[0].typename "\"TcpBasicClientApp\""
param **.source_033.app[0].localAddress "\"\""
param **.source_033.app[0].connectAddress "\"sink_033\""
param **.source_033.app[0].connectPort 1100
param **.source_033.app[0].startTime 0s
param **.source_033.app[0].idleInterval 1000s
param **.source_033.app[0].requestLength 1300B
param **.source_033.app[0].replyLength 20B
param **.source_033.app[0].thinkTime 0s
param **.source_033.app[0].numRequestsPerSession 1
param **.source_034.numApps 1
param **.source_034.app[0].typename "\"TcpBasicClientApp\""
param **.source_034.app[0].localAddress "\"\""
param **.source_034.app[0].connectAddress "\"sink_034\""
param **.source_034.app[0].connectPort 1100
param **.source_034.app[0].startTime 0s
param **.source_034.app[0].idleInterval 1000s
param **.source_034.app[0].requestLength 1300B
param **.source_034.app[0].replyLength 20B
param **.source_034.app[0].thinkTime 0s
param **.source_034.app[0].numRequestsPerSession 10
param **.source_035.numApps 1
param **.source_035.app[0].typename "\"TcpBasicClientApp\""
param **.source_035.app[0].localAddress "\"\""
param **.source_035.app[0].connectAddress "\"sink_035\""
param **.source_035.app[0].connectPort 1100
param **.source_035.app[0].startTime 0s
param **.source_035.app[0].idleInterval 1000s
param **.source_035.app[0].requestLength 1300B
param **.source_035.app[0].replyLength 20B
param **.source_035.app[0].thinkTime 0s
param **.source_035.app[0].numRequestsPerSession 11
param **.source_036.numApps 1
param **.source_036.app[0].typename "\"TcpBasicClientApp\""
param **.source_036.app[0].localAddress "\"\""
param **.source_036.app[0].connectAddress "\"sink_036\""
param **.source_036.app[0].connectPort 1100
param **.source_036.app[0].startTime 0s
param **.source_036.app[0].idleInterval 1000s
param **.source_036.app[0].requestLength 1300B
param **.source_036.app[0].replyLength 20B
param **.source_036.app[0].thinkTime 0s
param **.source_036.app[0].numRequestsPerSession 10
param **.source_037.numApps 1
param **.source_037.app[0].typename "\"TcpBasicClientApp\""
param **.source_037.app[0].localAddress "\"\""
param **.source_037.app[0].connectAddress "\"sink_037\""
param **.source_037.app[0].connectPort 1100
param **.source_037.app[0].startTime 0s
param **.source_037.app[0].idleInterval 1000s
param **.source_037.app[0].requestLength 1300B
param **.source_037.app[0].replyLength 20B
param **.source_037.app[0].thinkTime 0s
param **.source_037.app[0].numRequestsPerSession 6
param **.source_038.numApps 1
param **.source_038.app[0].typename "\"TcpBasicClientApp\""
param **.source_038.app[0].localAddress "\"\""
param **.source_038.app[0].connectAddress "\"sink_038\""
param **.source_038.app[0].connectPort 1100
param **.source_038.app[0].startTime 0s
param **.source_038.app[0].idleInterval 1000s
param **.source_038.app[0].requestLength 1300B
param **.source_038.app[0].replyLength 20B
param **.source_038.app[0].thinkTime 0s
param **.source_038.app[0].numRequestsPerSession 28
param **.source_039.numApps 1
param **.source_039.app[0].typename "\"TcpBasicClientApp\""
param **.source_039.app[0].localAddress "\"\""
param **.source_039.app[0].connectAddress "\"sink_039\""
param **.source_039.app[0].connectPort 1100
param **.source_039.app[0].startTime 0s
param **.source_039.app[0].idleInterval 1000s
param **.source_039.app[0].requestLength 1300B
param **.source_039.app[0].replyLength 20B
param **.source_039.app[0].thinkTime 0s
param **.source_039.app[0].numRequestsPerSession 63
param **.source_040.numApps 1
param **.source_040.app[0].typename "\"TcpBasicClientApp\""
param **.source_040.app[0].localAddress "\"\""
param **.source_040.app[0].connectAddress "\"sink_040\""
param **.source_040.app[0].connectPort 1100
param **.source_040.app[0].startTime 0s
param **.source_040.app[0].idleInterval 1000s
param **.source_040.app[0].requestLength 1300B
param **.source_040.app[0].replyLength 20B
param **.source_040.app[0].thinkTime 0s
param **.source_040.app[0].numRequestsPerSession 79
param **.source_041.numApps 1
param **.source_041.app[0].typename "\"TcpBasicClientApp\""
param **.source_041.app[0].localAddress "\"\""
param **.source_041.app[0].connectAddress "\"sink_041\""
param **.source_041.app[0].connectPort 1100
param **.source_041.app[0].startTime 0s
param **.source_041.app[0].idleInterval 1000s
param **.source_041.app[0].requestLength 1300B
param **.source_041.app[0].replyLength 20B
param **.source_041.app[0].thinkTime 0s
param **.source_041.app[0].numRequestsPerSession 107
param **.source_042.numApps 1
param **.source_042.app[0].typename "\"TcpBasicClientApp\""
param **.source_042.app[0].localAddress "\"\""
param **.source_042.app[0].connectAddress "\"sink_042\""
param **.source_042.app[0].connectPort 1100
param **.source_042.app[0].startTime 0s
param **.source_042.app[0].idleInterval 1000s
param **.source_042.app[0].requestLength 1300B
param **.source_042.app[0].replyLength 20B
param **.source_042.app[0].thinkTime 0s
param **.source_042.app[0].numRequestsPerSession 11
param **.source_043.numApps 1
param **.source_043.app[0].typename "\"TcpBasicClientApp\""
param **.source_043.app[0].localAddress "\"\""
param **.source_043.app[0].connectAddress "\"sink_043\""
param **.source_043.app[0].connectPort 1100
param **.source_043.app[0].startTime 0s
param **.source_043.app[0].idleInterval 1000s
param **.source_043.app[0].requestLength 1300B
param **.source_043.app[0].replyLength 20B
param **.source_043.app[0].thinkTime 0s
param **.source_043.app[0].numRequestsPerSession 276
param **.source_044.numApps 1
param **.source_044.app[0].typename "\"TcpBasicClientApp\""
param **.source_044.app[0].localAddress "\"\""
param **.source_044.app[0].connectAddress "\"sink_044\""
param **.source_044.app[0].connectPort 1100
param **.source_044.app[0].startTime 0s
param **.source_044.app[0].idleInterval 1000s
param **.source_044.app[0].requestLength 1300B
param **.source_044.app[0].replyLength 20B
param **.source_044.app[0].thinkTime 0s
param **.source_044.app[0].numRequestsPerSession 39
param **.source_045.numApps 1
param **.source_045.app[0].typename "\"TcpBasicClientApp\""
param **.source_045.app[0].localAddress "\"\""
param **.source_045.app[0].connectAddress "\"sink_045\""
param **.source_045.app[0].connectPort 1100
param **.source_045.app[0].startTime 0s
param **.source_045.app[0].idleInterval 1000s
param **.source_045.app[0].requestLength 1300B
param **.source_045.app[0].replyLength 20B
param **.source_045.app[0].thinkTime 0s
param **.source_045.app[0].numRequestsPerSession 2
param **.source_046.numApps 1
param **.source_046.app[0].typename "\"TcpBasicClientApp\""
param **.source_046.app[0].localAddress "\"\""
param **.source_046.app[0].connectAddress "\"sink_046\""
param **.source_046.app[0].connectPort 1100
param **.source_046.app[0].startTime 0s
param **.source_046.app[0].idleInterval 1000s
param **.source_046.app[0].requestLength 1300B
param **.source_046.app[0].replyLength 20B
param **.source_046.app[0].thinkTime 0s
param **.source_046.app[0].numRequestsPerSession 17
param **.source_047.numApps 1
param **.source_047.app[0].typename "\"TcpBasicClientApp\""
param **.source_047.app[0].localAddress "\"\""
param **.source_047.app[0].connectAddress "\"sink_047\""
param **.source_047.app[0].connectPort 1100
param **.source_047.app[0].startTime 0s
param **.source_047.app[0].idleInterval 1000s
param **.source_047.app[0].requestLength 1300B
param **.source_047.app[0].replyLength 20B
param **.source_047.app[0].thinkTime 0s
param **.source_047.app[0].numRequestsPerSession 130
param **.source_048.numApps 1
param **.source_048.app[0].typename "\"TcpBasicClientApp\""
param **.source_048.app[0].localAddress "\"\""
param **.source_048.app[0].connectAddress "\"sink_048\""
param **.source_048.app[0].connectPort 1100
param **.source_048.app[0].startTime 0s
param **.source_048.app[0].idleInterval 1000s
param **.source_048.app[0].requestLength 1300B
param **.source_048.app[0].replyLength 20B
param **.source_048.app[0].thinkTime 0s
param **.source_048.app[0].numRequestsPerSession 10
param **.source_049.numApps 1
param **.source_049.app[0].typename "\"TcpBasicClientApp\""
param **.source_049.app[0].localAddress "\"\""
param **.source_049.app[0].connectAddress "\"sink_049\""
param **.source_049.app[0].connectPort 1100
param **.source_049.app[0].startTime 0s
param **.source_049.app[0].idleInterval 1000s
param **.source_049.app[0].requestLength 1300B
param **.source_049.app[0].replyLength 20B
param **.source_049.app[0].thinkTime 0s
param **.source_049.app[0].numRequestsPerSession 105
param **.source_050.numApps 1
param **.source_050.app[0].typename "\"TcpBasicClientApp\""
param **.source_050.app[0].localAddress "\"\""
param **.source_050.app[0].connectAddress "\"sink_050\""
param **.source_050.app[0].connectPort 1100
param **.source_050.app[0].startTime 0s
param **.source_050.app[0].idleInterval 1000s
param **.source_050.app[0].requestLength 1300B
param **.source_050.app[0].replyLength 20B
param **.source_050.app[0].thinkTime 0s
param **.source_050.app[0].numRequestsPerSession 27
param **.source_051.numApps 1
param **.source_051.app[0].typename "\"TcpBasicClientApp\""
param **.source_051.app[0].localAddress "\"\""
param **.source_051.app[0].connectAddress "\"sink_051\""
param **.source_051.app[0].connectPort 1100
param **.source_051.app[0].startTime 0s
param **.source_051.app[0].idleInterval 1000s
param **.source_051.app[0].requestLength 1300B
param **.source_051.app[0].replyLength 20B
param **.source_051.app[0].thinkTime 0s
param **.source_051.app[0].numRequestsPerSession 49
param **.source_052.numApps 1
param **.source_052.app[0].typename "\"TcpBasicClientApp\""
param **.source_052.app[0].localAddress "\"\""
param **.source_052.app[0].connectAddress "\"sink_052\""
param **.source_052.app[0].connectPort 1100
param **.source_052.app[0].startTime 0s
param **.source_052.app[0].idleInterval 1000s
param **.source_052.app[0].requestLength 1300B
param **.source_052.app[0].replyLength 20B
param **.source_052.app[0].thinkTime 0s
param **.source_052.app[0].numRequestsPerSession 4
param **.source_053.numApps 1
param **.source_053.app[0].typename "\"TcpBasicClientApp\""
param **.source_053.app[0].localAddress "\"\""
param **.source_053.app[0].connectAddress "\"sink_053\""
param **.source_053.app[0].connectPort 1100
param **.source_053.app[0].startTime 0s
param **.source_053.app[0].idleInterval 1000s
param **.source_053.app[0].requestLength 1300B
param **.source_053.app[0].replyLength 20B
param **.source_053.app[0].thinkTime 0s
param **.source_053.app[0].numRequestsPerSession 19
param **.source_054.numApps 1
param **.source_054.app[0].typename "\"TcpBasicClientApp\""
param **.source_054.app[0].localAddress "\"\""
param **.source_054.app[0].connectAddress "\"sink_054\""
param **.source_054.app[0].connectPort 1100
param **.source_054.app[0].startTime 0s
param **.source_054.app[0].idleInterval 1000s
param **.source_054.app[0].requestLength 1300B
param **.source_054.app[0].replyLength 20B
param **.source_054.app[0].thinkTime 0s
param **.source_054.app[0].numRequestsPerSession 5
param **.source_055.numApps 1
param **.source_055.app[0].typename "\"TcpBasicClientApp\""
param **.source_055.app[0].localAddress "\"\""
param **.source_055.app[0].connectAddress "\"sink_055\""
param **.source_055.app[0].connectPort 1100
param **.source_055.app[0].startTime 0s
param **.source_055.app[0].idleInterval 1000s
param **.source_055.app[0].requestLength 1300B
param **.source_055.app[0].replyLength 20B
param **.source_055.app[0].thinkTime 0s
param **.source_055.app[0].numRequestsPerSession 668
param **.source_056.numApps 1
param **.source_056.app[0].typename "\"TcpBasicClientApp\""
param **.source_056.app[0].localAddress "\"\""
param **.source_056.app[0].connectAddress "\"sink_056\""
param **.source_056.app[0].connectPort 1100
param **.source_056.app[0].startTime 0s
param **.source_056.app[0].idleInterval 1000s
param **.source_056.app[0].requestLength 1300B
param **.source_056.app[0].replyLength 20B
param **.source_056.app[0].thinkTime 0s
param **.source_056.app[0].numRequestsPerSession 6
param **.source_057.numApps 1
param **.source_057.app[0].typename "\"TcpBasicClientApp\""
param **.source_057.app[0].localAddress "\"\""
param **.source_057.app[0].connectAddress "\"sink_057\""
param **.source_057.app[0].connectPort 1100
param **.source_057.app[0].startTime 0s
param **.source_057.app[0].idleInterval 1000s
param **.source_057.app[0].requestLength 1300B
param **.source_057.app[0].replyLength 20B
param **.source_057.app[0].thinkTime 0s
param **.source_057.app[0].numRequestsPerSession 11
param **.source_058.numApps 1
param **.source_058.app[0].typename "\"TcpBasicClientApp\""
param **.source_058.app[0].localAddress "\"\""
param **.source_058.app[0].connectAddress "\"sink_058\""
param **.source_058.app[0].connectPort 1100
param **.source_058.app[0].startTime 0s
param **.source_058.app[0].idleInterval 1000s
param **.source_058.app[0].requestLength 1300B
param **.source_058.app[0].replyLength 20B
param **.source_058.app[0].thinkTime 0s
param **.source_058.app[0].numRequestsPerSession 165
param **.source_059.numApps 1
param **.source_059.app[0].typename "\"TcpBasicClientApp\""
param **.source_059.app[0].localAddress "\"\""
param **.source_059.app[0].connectAddress "\"sink_059\""
param **.source_059.app[0].connectPort 1100
param **.source_059.app[0].startTime 0s
param **.source_059.app[0].idleInterval 1000s
param **.source_059.app[0].requestLength 1300B
param **.source_059.app[0].replyLength 20B
param **.source_059.app[0].thinkTime 0s
param **.source_059.app[0].numRequestsPerSession 10
param **.source_060.numApps 1
param **.source_060.app[0].typename "\"TcpBasicClientApp\""
param **.source_060.app[0].localAddress "\"\""
param **.source_060.app[0].connectAddress "\"sink_060\""
param **.source_060.app[0].connectPort 1100
param **.source_060.app[0].startTime 0s
param **.source_060.app[0].idleInterval 1000s
param **.source_060.app[0].requestLength 1300B
param **.source_060.app[0].replyLength 20B
param **.source_060.app[0].thinkTime 0s
param **.source_060.app[0].numRequestsPerSession 13
param **.source_061.numApps 1
param **.source_061.app[0].typename "\"TcpBasicClientApp\""
param **.source_061.app[0].localAddress "\"\""
param **.source_061.app[0].connectAddress "\"sink_061\""
param **.source_061.app[0].connectPort 1100
param **.source_061.app[0].startTime 0s
param **.source_061.app[0].idleInterval 1000s
param **.source_061.app[0].requestLength 1300B
param **.source_061.app[0].replyLength 20B
param **.source_061.app[0].thinkTime 0s
param **.source_061.app[0].numRequestsPerSession 21
param **.source_062.numApps 1
param **.source_062.app[0].typename "\"TcpBasicClientApp\""
param **.source_062.app[0].localAddress "\"\""
param **.source_062.app[0].connectAddress "\"sink_062\""
param **.source_062.app[0].connectPort 1100
param **.source_062.app[0].startTime 0s
param **.source_062.app[0].idleInterval 1000s
param **.source_062.app[0].requestLength 1300B
param **.source_062.app[0].replyLength 20B
param **.source_062.app[0].thinkTime 0s
param **.source_062.app[0].numRequestsPerSession 258
param **.source_063.numApps 1
param **.source_063.app[0].typename "\"TcpBasicClientApp\""
param **.source_063.app[0].localAddress "\"\""
param **.source_063.app[0].connectAddress "\"sink_063\""
param **.source_063.app[0].connectPort 1100
param **.source_063.app[0].startTime 0s
param **.source_063.app[0].idleInterval 1000s
param **.source_063.app[0].requestLength 1300B
param **.source_063.app[0].replyLength 20B
param **.source_063.app[0].thinkTime 0s
param **.source_063.app[0].numRequestsPerSession 18
param **.source_064.numApps 1
param **.source_064.app[0].typename "\"TcpBasicClientApp\""
param **.source_064.app[0].localAddress "\"\""
param **.source_064.app[0].connectAddress "\"sink_064\""
param **.source_064.app[0].connectPort 1100
param **.source_064.app[0].startTime 0s
param **.source_064.app[0].idleInterval 1000s
param **.source_064.app[0].requestLength 1300B
param **.source_064.app[0].replyLength 20B
param **.source_064.app[0].thinkTime 0s
param **.source_064.app[0].numRequestsPerSession 2
param **.source_065.numApps 1
param **.source_065.app[0].typename "\"TcpBasicClientApp\""
param **.source_065.app[0].localAddress "\"\""
param **.source_065.app[0].connectAddress "\"sink_065\""
param **.source_065.app[0].connectPort 1100
param **.source_065.app[0].startTime 0s
param **.source_065.app[0].idleInterval 1000s
param **.source_065.app[0].requestLength 1300B
param **.source_065.app[0].replyLength 20B
param **.source_065.app[0].thinkTime 0s
param **.source_065.app[0].numRequestsPerSession 66
param **.source_066.numApps 1
param **.source_066.app[0].typename "\"TcpBasicClientApp\""
param **.source_066.app[0].localAddress "\"\""
param **.source_066.app[0].connectAddress "\"sink_066\""
param **.source_066.app[0].connectPort 1100
param **.source_066.app[0].startTime 0s
param **.source_066.app[0].idleInterval 1000s
param **.source_066.app[0].requestLength 1300B
param **.source_066.app[0].replyLength 20B
param **.source_066.app[0].thinkTime 0s
param **.source_066.app[0].numRequestsPerSession 18
param **.source_067.numApps 1
param **.source_067.app[0].typename "\"TcpBasicClientApp\""
param **.source_067.app[0].localAddress "\"\""
param **.source_067.app[0].connectAddress "\"sink_067\""
param **.source_067.app[0].connectPort 1100
param **.source_067.app[0].startTime 0s
param **.source_067.app[0].idleInterval 1000s
param **.source_067.app[0].requestLength 1300B
param **.source_067.app[0].replyLength 20B
param **.source_067.app[0].thinkTime 0s
param **.source_067.app[0].numRequestsPerSession 1
param **.source_068.numApps 1
param **.source_068.app[0].typename "\"TcpBasicClientApp\""
param **.source_068.app[0].localAddress "\"\""
param **.source_068.app[0].connectAddress "\"sink_068\""
param **.source_068.app[0].connectPort 1100
param **.source_068.app[0].startTime 0s
param **.source_068.app[0].idleInterval 1000s
param **.source_068.app[0].requestLength 1300B
param **.source_068.app[0].replyLength 20B
param **.source_068.app[0].thinkTime 0s
param **.source_068.app[0].numRequestsPerSession 11
param **.source_069.numApps 1
param **.source_069.app[0].typename "\"TcpBasicClientApp\""
param **.source_069.app[0].localAddress "\"\""
param **.source_069.app[0].connectAddress "\"sink_069\""
param **.source_069.app[0].connectPort 1100
param **.source_069.app[0].startTime 0s
param **.source_069.app[0].idleInterval 1000s
param **.source_069.app[0].requestLength 1300B
param **.source_069.app[0].replyLength 20B
param **.source_069.app[0].thinkTime 0s
param **.source_069.app[0].numRequestsPerSession 8
param **.source_070.numApps 1
param **.source_070.app[0].typename "\"TcpBasicClientApp\""
param **.source_070.app[0].localAddress "\"\""
param **.source_070.app[0].connectAddress "\"sink_070\""
param **.source_070.app[0].connectPort 1100
param **.source_070.app[0].startTime 0s
param **.source_070.app[0].idleInterval 1000s
param **.source_070.app[0].requestLength 1300B
param **.source_070.app[0].replyLength 20B
param **.source_070.app[0].thinkTime 0s
param **.source_070.app[0].numRequestsPerSession 17
param **.source_071.numApps 1
param **.source_071.app[0].typename "\"TcpBasicClientApp\""
param **.source_071.app[0].localAddress "\"\""
param **.source_071.app[0].connectAddress "\"sink_071\""
param **.source_071.app[0].connectPort 1100
param **.source_071.app[0].startTime 0s
param **.source_071.app[0].idleInterval 1000s
param **.source_071.app[0].requestLength 1300B
param **.source_071.app[0].replyLength 20B
param **.source_071.app[0].thinkTime 0s
param **.source_071.app[0].numRequestsPerSession 19
param **.source_072.numApps 1
param **.source_072.app[0].typename "\"TcpBasicClientApp\""
param **.source_072.app[0].localAddress "\"\""
param **.source_072.app[0].connectAddress "\"sink_072\""
param **.source_072.app[0].connectPort 1100
param **.source_072.app[0].startTime 0s
param **.source_072.app[0].idleInterval 1000s
param **.source_072.app[0].requestLength 1300B
param **.source_072.app[0].replyLength 20B
param **.source_072.app[0].thinkTime 0s
param **.source_072.app[0].numRequestsPerSession 40
param **.source_073.numApps 1
param **.source_073.app[0].typename "\"TcpBasicClientApp\""
param **.source_073.app[0].localAddress "\"\""
param **.source_073.app[0].connectAddress "\"sink_073\""
param **.source_073.app[0].connectPort 1100
param **.source_073.app[0].startTime 0s
param **.source_073.app[0].idleInterval 1000s
param **.source_073.app[0].requestLength 1300B
param **.source_073.app[0].replyLength 20B
param **.source_073.app[0].thinkTime 0s
param **.source_073.app[0].numRequestsPerSession 8
param **.source_074.numApps 1
param **.source_074.app[0].typename "\"TcpBasicClientApp\""
param **.source_074.app[0].localAddress "\"\""
param **.source_074.app[0].connectAddress "\"sink_074\""
param **.source_074.app[0].connectPort 1100
param **.source_074.app[0].startTime 0s
param **.source_074.app[0].idleInterval 1000s
param **.source_074.app[0].requestLength 1300B
param **.source_074.app[0].replyLength 20B
param **.source_074.app[0].thinkTime 0s
param **.source_074.app[0].numRequestsPerSession 1
param **.source_075.numApps 1
param **.source_075.app[0].typename "\"TcpBasicClientApp\""
param **.source_075.app[0].localAddress "\"\""
param **.source_075.app[0].connectAddress "\"sink_075\""
param **.source_075.app[0].connectPort 1100
param **.source_075.app[0].startTime 0s
param **.source_075.app[0].idleInterval 1000s
param **.source_075.app[0].requestLength 1300B
param **.source_075.app[0].replyLength 20B
param **.source_075.app[0].thinkTime 0s
param **.source_075.app[0].numRequestsPerSession 25
param **.source_076.numApps 1
param **.source_076.app[0].typename "\"TcpBasicClientApp\""
param **.source_076.app[0].localAddress "\"\""
param **.source_076.app[0].connectAddress "\"sink_076\""
param **.source_076.app[0].connectPort 1100
param **.source_076.app[0].startTime 0s
param **.source_076.app[0].idleInterval 1000s
param **.source_076.app[0].requestLength 1300B
param **.source_076.app[0].replyLength 20B
param **.source_076.app[0].thinkTime 0s
param **.source_076.app[0].numRequestsPerSession 3
param **.source_077.numApps 1
param **.source_077.app[0].typename "\"TcpBasicClientApp\""
param **.source_077.app[0].localAddress "\"\""
param **.source_077.app[0].connectAddress "\"sink_077\""
param **.source_077.app[0].connectPort 1100
param **.source_077.app[0].startTime 0s
param **.source_077.app[0].idleInterval 1000s
param **.source_077.app[0].requestLength 1300B
param **.source_077.app[0].replyLength 20B
param **.source_077.app[0].thinkTime 0s
param **.source_077.app[0].numRequestsPerSession 57
param **.source_078.numApps 1
param **.source_078.app[0].typename "\"TcpBasicClientApp\""
param **.source_078.app[0].localAddress "\"\""
param **.source_078.app[0].connectAddress "\"sink_078\""
param **.source_078.app[0].connectPort 1100
param **.source_078.app[0].startTime 0s
param **.source_078.app[0].idleInterval 1000s
param **.source_078.app[0].requestLength 1300B
param **.source_078.app[0].replyLength 20B
param **.source_078.app[0].thinkTime 0s
param **.source_078.app[0].numRequestsPerSession 109
param **.source_079.numApps 1
param **.source_079.app[0].typename "\"TcpBasicClientApp\""
param **.source_079.app[0].localAddress "\"\""
param **.source_079.app[0].connectAddress "\"sink_079\""
param **.source_079.app[0].connectPort 1100
param **.source_079.app[0].startTime 0s
param **.source_079.app[0].idleInterval 1000s
param **.source_079.app[0].requestLength 1300B
param **.source_079.app[0].replyLength 20B
param **.source_079.app[0].thinkTime 0s
param **.source_079.app[0].numRequestsPerSession 10
param **.source_080.numApps 1
param **.source_080.app[0].typename "\"TcpBasicClientApp\""
param **.source_080.app[0].localAddress "\"\""
param **.source_080.app[0].connectAddress "\"sink_080\""
param **.source_080.app[0].connectPort 1100
param **.source_080.app[0].startTime 0s
param **.source_080.app[0].idleInterval 1000s
param **.source_080.app[0].requestLength 1300B
param **.source_080.app[0].replyLength 20B
param **.source_080.app[0].thinkTime 0s
param **.source_080.app[0].numRequestsPerSession 652
param **.source_081.numApps 1
param **.source_081.app[0].typename "\"TcpBasicClientApp\""
param **.source_081.app[0].localAddress "\"\""
param **.source_081.app[0].connectAddress "\"sink_081\""
param **.source_081.app[0].connectPort 1100
param **.source_081.app[0].startTime 0s
param **.source_081.app[0].idleInterval 1000s
param **.source_081.app[0].requestLength 1300B
param **.source_081.app[0].replyLength 20B
param **.source_081.app[0].thinkTime 0s
param **.source_081.app[0].numRequestsPerSession 5
param **.source_082.numApps 1
param **.source_082.app[0].typename "\"TcpBasicClientApp\""
param **.source_082.app[0].localAddress "\"\""
param **.source_082.app[0].connectAddress "\"sink_082\""
param **.source_082.app[0].connectPort 1100
param **.source_082.app[0].startTime 0s
param **.source_082.app[0].idleInterval 1000s
param **.source_082.app[0].requestLength 1300B
param **.source_082.app[0].replyLength 20B
param **.source_082.app[0].thinkTime 0s
param **.source_082.app[0].numRequestsPerSession 6
param **.source_083.numApps 1
param **.source_083.app[0].typename "\"TcpBasicClientApp\""
param **.source_083.app[0].localAddress "\"\""
param **.source_083.app[0].connectAddress "\"sink_083\""
param **.source_083.app[0].connectPort 1100
param **.source_083.app[0].startTime 0s
param **.source_083.app[0].idleInterval 1000s
param **.source_083.app[0].requestLength 1300B
param **.source_083.app[0].replyLength 20B
param **.source_083.app[0].thinkTime 0s
param **.source_083.app[0].numRequestsPerSession 55
param **.source_084.numApps 1
param **.source_084.app[0].typename "\"TcpBasicClientApp\""
param **.source_084.app[0].localAddress "\"\""
param **.source_084.app[0].connectAddress "\"sink_084\""
param **.source_084.app[0].connectPort 1100
param **.source_084.app[0].startTime 0s
param **.source_084.app[0].idleInterval 1000s
param **.source_084.app[0].requestLength 1300B
param **.source_084.app[0].replyLength 20B
param **.source_084.app[0].thinkTime 0s
param **.source_084.app[0].numRequestsPerSession 16
param **.source_085.numApps 1
param **.source_085.app[0].typename "\"TcpBasicClientApp\""
param **.source_085.app[0].localAddress "\"\""
param **.source_085.app[0].connectAddress "\"sink_085\""
param **.source_085.app[0].connectPort 1100
param **.source_085.app[0].startTime 0s
param **.source_085.app[0].idleInterval 1000s
param **.source_085.app[0].requestLength 1300B
param **.source_085.app[0].replyLength 20B
param **.source_085.app[0].thinkTime 0s
param **.source_085.app[0].numRequestsPerSession 7
param **.source_086.numApps 1
param **.source_086.app[0].typename "\"TcpBasicClientApp\""
param **.source_086.app[0].localAddress "\"\""
param **.source_086.app[0].connectAddress "\"sink_086\""
param **.source_086.app[0].connectPort 1100
param **.source_086.app[0].startTime 0s
param **.source_086.app[0].idleInterval 1000s
param **.source_086.app[0].requestLength 1300B
param **.source_086.app[0].replyLength 20B
param **.source_086.app[0].thinkTime 0s
param **.source_086.app[0].numRequestsPerSession 3
param **.source_087.numApps 1
param **.source_087.app[0].typename "\"TcpBasicClientApp\""
param **.source_087.app[0].localAddress "\"\""
param **.source_087.app[0].connectAddress "\"sink_087\""
param **.source_087.app[0].connectPort 1100
param **.source_087.app[0].startTime 0s
param **.source_087.app[0].idleInterval 1000s
param **.source_087.app[0].requestLength 1300B
param **.source_087.app[0].replyLength 20B
param **.source_087.app[0].thinkTime 0s
param **.source_087.app[0].numRequestsPerSession 7
param **.source_088.numApps 1
param **.source_088.app[0].typename "\"TcpBasicClientApp\""
param **.source_088.app[0].localAddress "\"\""
param **.source_088.app[0].connectAddress "\"sink_088\""
param **.source_088.app[0].connectPort 1100
param **.source_088.app[0].startTime 0s
param **.source_088.app[0].idleInterval 1000s
param **.source_088.app[0].requestLength 1300B
param **.source_088.app[0].replyLength 20B
param **.source_088.app[0].thinkTime 0s
param **.source_088.app[0].numRequestsPerSession 87
param **.source_089.numApps 1
param **.source_089.app[0].typename "\"TcpBasicClientApp\""
param **.source_089.app[0].localAddress "\"\""
param **.source_089.app[0].connectAddress "\"sink_089\""
param **.source_089.app[0].connectPort 1100
param **.source_089.app[0].startTime 0s
param **.source_089.app[0].idleInterval 1000s
param **.source_089.app[0].requestLength 1300B
param **.source_089.app[0].replyLength 20B
param **.source_089.app[0].thinkTime 0s
param **.source_089.app[0].numRequestsPerSession 2
param **.source_090.numApps 1
param **.source_090.app[0].typename "\"TcpBasicClientApp\""
param **.source_090.app[0].localAddress "\"\""
param **.source_090.app[0].connectAddress "\"sink_090\""
param **.source_090.app[0].connectPort 1100
param **.source_090.app[0].startTime 0s
param **.source_090.app[0].idleInterval 1000s
param **.source_090.app[0].requestLength 1300B
param **.source_090.app[0].replyLength 20B
param **.source_090.app[0].thinkTime 0s
param **.source_090.app[0].numRequestsPerSession 169
param **.source_091.numApps 1
param **.source_091.app[0].typename "\"TcpBasicClientApp\""
param **.source_091.app[0].localAddress "\"\""
param **.source_091.app[0].connectAddress "\"sink_091\""
param **.source_091.app[0].connectPort 1100
param **.source_091.app[0].startTime 0s
param **.source_091.app[0].idleInterval 1000s
param **.source_091.app[0].requestLength 1300B
param **.source_091.app[0].replyLength 20B
param **.source_091.app[0].thinkTime 0s
param **.source_091.app[0].numRequestsPerSession 416
param **.source_092.numApps 1
param **.source_092.app[0].typename "\"TcpBasicClientApp\""
param **.source_092.app[0].localAddress "\"\""
param **.source_092.app[0].connectAddress "\"sink_092\""
param **.source_092.app[0].connectPort 1100
param **.source_092.app[0].startTime 0s
param **.source_092.app[0].idleInterval 1000s
param **.source_092.app[0].requestLength 1300B
param **.source_092.app[0].replyLength 20B
param **.source_092.app[0].thinkTime 0s
param **.source_092.app[0].numRequestsPerSession 20
param **.source_093.numApps 1
param **.source_093.app[0].typename "\"TcpBasicClientApp\""
param **.source_093.app[0].localAddress "\"\""
param **.source_093.app[0].connectAddress "\"sink_093\""
param **.source_093.app[0].connectPort 1100
param **.source_093.app[0].startTime 0s
param **.source_093.app[0].idleInterval 1000s
param **.source_093.app[0].requestLength 1300B
param **.source_093.app[0].replyLength 20B
param **.source_093.app[0].thinkTime 0s
param **.source_093.app[0].numRequestsPerSession 330
param **.source_094.numApps 1
param **.source_094.app[0].typename "\"TcpBasicClientApp\""
param **.source_094.app[0].localAddress "\"\""
param **.source_094.app[0].connectAddress "\"sink_094\""
param **.source_094.app[0].connectPort 1100
param **.source_094.app[0].startTime 0s
param **.source_094.app[0].idleInterval 1000s
[...]
222	446427 137 21793 90281 0.01797 0.08977 5 0.014537 0.019049 0.082428 0.00137254178
223	446564 1118 21872 417475 0.018043 0.519604 39 0.001216 0.003707 0.070628 0.000145972666
224	447682 197 21999 101702 0.018154 0.102097 7 0.010289 0.015974 0.092378 0.00124519913
225	447879 143 22082 175393 0.018271 0.187784 5 0.002417 0.004169 0.015749 5.2004157e-05
226	448022 19265 22178 1427026 0.018396 7.67539 652 0.001216 0.00497 0.990084 0.001828921522
227	467287 313 22312 245996 0.018549 0.274213 11 0.002775 0.00723 0.049481 0.000236980327
228	467600 600 22447 370982 0.018707 0.447657 21 0.011464 0.038141 0.40462 0.009157723664
229	468200 2267 22552 684230 0.018807 1.055654 79 0.001049 0.00441 0.126406 0.000245487392
230	470467 372 22585 322012 0.018831 0.375233 13 0.014411 0.043891 0.329071 0.009204353663
231	470839 111 22821 63517 0.019062 0.06178 4 0.011919 0.016689 0.05507 0.000770971916
232	470950 137 22962 91863 0.019186 0.09125 5 0.001216 0.00148 0.0064 8.242816e-06
233	471087 3741 22988 865376 0.019199 1.582968 130 0.008729 0.016828 1.277729 0.012864604765
234	474828 196 23010 102877 0.019203 0.103146 7 0.001049 0.00208 0.008399 1.0981881e-05
235	475024 172 23048 202496 0.019214 0.220587 6 0.001216 0.004104 0.015053 4.4947189e-05
236	475196 916 23101 406072 0.019262 0.501605 32 0.010176 0.017583 0.439962 0.006193212546
237	476112 56 23165 42142 0.019333 0.040039 2 0.002553 0.002757 0.00531 1.4118858e-05
238	476168 2091 23217 590012 0.01938 0.85119 73 0.001383 0.004067 0.167705 0.000419770861
239	478259 110 23275 58787 0.019448 0.057091 4 0.009854 0.017122 0.049694 0.000649186524
240	478369 457 23321 205608 0.019501 0.224942 16 0.010176 0.017269 0.196655 0.002479520013
241	478826 4754 23529 1005300 0.019882 2.16929 165 0.001216 0.00473 0.284927 0.000601183719
242	483580 372 23639 261614 0.019996 0.293858 13 0.001216 0.004207 0.029114 7.8079114e-05
243	483952 6170 23726 1001675 0.020101 2.150092 214 0.007282 0.035239 1.828895 0.018796695703
244	490122 1317 23814 497336 0.020217 0.667664 46 0.001049 0.00379 0.098504 0.000251979188
245	491439 112 24226 60401 0.020831 0.058629 4 0.001383 0.002305 0.006609 1.1503847e-05
246	491551 456 24257 206574 0.020847 0.225991 16 0.001049 0.003655 0.027104 5.6385258e-05
247	492007 56 24301 39857 0.020889 0.037333 2 0.013718 0.018267 0.031985 0.000521866813
248	492063 139 24322 84659 0.020895 0.083492 5 0.011855 0.018577 0.071893 0.001063511239
249	492202 112 24373 66123 0.020939 0.064539 4 0.001216 0.002759 0.007096 1.4161402e-05
250	492314 540 24537 234285 0.021307 0.259829 19 0.010176 0.018781 0.219189 0.002611515857
251	492854 3879 24669 928452 0.02146 1.818245 135 0.010176 0.021222 1.628471 0.020549596339
252	496733 85 24706 100664 0.021495 0.100988 3 0.019175 0.037886 0.093402 0.003123697902
253	496818 602 24750 398325 0.021513 0.489356 21 0.011328 0.030512 0.43181 0.009551195968
254	497420 255 24921 146490 0.021678 0.153576 9 0.001383 0.00381 0.016556 3.5924348e-05
255	497675 888 24950 413712 0.021687 0.514136 31 0.010176 0.019269 0.417225 0.005745828305
256	498563 916 25062 407143 0.021792 0.503139 32 0.001383 0.004745 0.060908 0.000131620008
257	499479 8048 25148 1192088 0.021893 3.306212 276 0.010176 0.019573 2.952453 0.031962150043
258	507527 138 25354 87889 0.022117 0.087132 5 0.001222 0.00364 0.012921 3.6496689e-05
259	507665 605 25447 371826 0.022233 0.448811 21 0.000882 0.003526 0.041973 9.7668513e-05
260	508270 82 25471 58210 0.022242 0.056476 3 0.01497 0.019822 0.051932 0.000910792184
261	508352 6170 25570 1002049 0.022347 2.151308 214 0.001216 0.002654 0.319944 0.000519207716
262	514522 542 25692 235450 0.022561 0.261084 19 0.001216 0.003747 0.039369 9.3784435e-05
263	515064 4713 25947 982864 0.022854 2.055786 164 0.010176 0.020128 1.826216 0.020636265312
264	519777 142 25992 156524 0.022889 0.165676 5 0.020775 0.039166 0.153548 0.004912497616
265	519919 1889 26028 649111 0.022907 0.977491 66 0.010176 0.029746 0.893351 0.013319075297
266	521808 3746 26166 866170 0.023018 1.585472 130 0.001216 0.006147 0.305372 0.000869565644
267	525554 545 26300 267636 0.023146 0.301563 19 0.010554 0.020573 0.258131 0.003608077547
268	526099 3892 26344 928807 0.02319 1.819461 135 0.001216 0.002526 0.188466 0.000280159506
269	529991 83 26429 59235 0.023291 0.05753 3 0.001049 0.001075 0.003178 3.366942e-06
270	530074 283 26487 164754 0.023334 0.175392 10 0.013056 0.020912 0.156454 0.002485356376
271	530357 56 26716 42406 0.023615 0.040344 2 0.002726 0.003011 0.005737 1.6497197e-05
272	530413 12217 26767 1290002 0.023636 4.373655 416 0.008729 0.021012 3.755087 0.034174540871
273	542630 8059 26830 1192360 0.023744 3.307428 276 0.001216 0.002561 0.352655 0.000465063295
274	550689 1906 26960 649619 0.02397 0.97854 66 0.001049 0.002284 0.082716 0.00011404484
275	552595 19781 27022 1430542 0.024048 7.91116 668 0.010176 0.02142 6.9243490000001 0.072066622698999
276	572376 601 27136 432355 0.024148 0.544605 21 0.010176 0.049397 0.470646 0.012528009076
277	572977 83 27278 99328 0.024283 0.099594 3 0.021712 0.037529 0.091608 0.002927459474
278	573060 283 27347 223362 0.024348 0.246217 10 0.019788 0.029546 0.230255 0.005367003443
279	573343 543 27515 296871 0.02454 0.339289 19 0.010785 0.022018 0.271292 0.004031595376
280	573886 56 27661 49409 0.024681 0.047669 2 0.017424 0.022208 0.039632 0.00079679104
281	573942 4727 27752 983197 0.024765 2.057002 164 0.001216 0.003245 0.22806 0.000340222756
282	578669 226 28002 122709 0.025024 0.126239 8 0.011904 0.022255 0.112586 0.001665931904
283	578895 2498 28034 691830 0.02503 1.072723 87 0.010176 0.022559 0.964211 0.010939288077
284	581393 891 28056 414619 0.025041 0.515352 31 0.001216 0.005939 0.095709 0.000353629381
285	582284 371 28159 324088 0.025123 0.377742 13 0.002096 0.006292 0.046198 0.000189322608
286	582655 281 28209 165764 0.025182 0.176441 10 0.001049 0.003262 0.017565 3.4807329e-05
287	582936 85 28271 104207 0.025276 0.104713 3 0.001485 0.003781 0.008991 3.0376811e-05
288	583021 142 28353 157770 0.02539 0.167211 5 0.001535 0.002557 0.011549 2.7432621e-05
289	583163 285 28477 224357 0.025564 0.247433 10 0.001216 0.002311 0.014552 2.277471e-05
290	583448 114 28522 145950 0.025589 0.153101 4 0.022918 0.042312 0.141271 0.005238441273
291	583562 84 28543 62310 0.025595 0.060539 3 0.015485 0.022716 0.055154 0.00104320609
292	583646 172 28642 181332 0.025677 0.195373 6 0.023259 0.039084 0.184341 0.005815822093
293	583818 28 28739 28739 0.025742 0.025742 1 0.022963 0.022963 0.022963 0.000527299369
294	583846 543 28760 268796 0.025746 0.302779 19 0.001216 0.003759 0.042075 0.000107421651
295	584389 543 28826 298801 0.025813 0.342227 19 0.001273 0.006219 0.068413 0.000271540461
296	584932 4038 28900 937163 0.025887 1.8532 140 0.010176 0.023263 1.56327 0.017889523548
297	588970 485 29050 246317 0.026122 0.274407 17 0.010579 0.023598 0.243409 0.003630123573
298	589455 227 29262 123923 0.026407 0.127622 8 0.001383 0.002531 0.012267 1.9948511e-05
299	589682 4848 29415 978772 0.026585 2.038449 169 0.010176 0.02391 1.8116 0.019753111716
300	594530 82 29587 63598 0.026811 0.061829 3 0.001216 0.00129 0.003796 4.806856e-06
301	594612 19772 29656 1430628 0.026849 7.912543 668 0.001383 0.003965 0.98556600000001 0.001515914176
302	614384 84 29778 72546 0.026942 0.071205 3 0.018369 0.024267 0.062424 0.001317872394
303	614468 12225 29804 1290153 0.026955 4.374871 416 0.001216 0.003816 0.61716 0.001080524144
304	626693 54 29854 68067 0.026983 0.066273 2 0.0241 0.038575 0.062675 0.002068840625
305	626747 256 29954 224491 0.027071 0.247562 9 0.018488 0.033481 0.230851 0.006179784803
306	627003 518 29994 365265 0.027089 0.439266 18 0.016079 0.036048 0.415354 0.010108471688
307	627521 2509 30065 692148 0.02713 1.073772 87 0.001049 0.002485 0.10709 0.000146090998
308	630030 4029 30226 937757 0.027254 1.856773 140 0.001049 0.004124 0.290879 0.000736975409
309	634059 1838 30280 666358 0.027281 1.014593 64 0.011623 0.024606 0.844594 0.01141685748
310	635897 602 30370 399038 0.027351 0.490572 21 0.001216 0.005838 0.056238 0.00018306016
311	636499 3021 30631 795071 0.027583 1.356074 105 0.010176 0.025008 1.210863 0.014419895393
312	639520 4869 30721 979095 0.027648 2.039665 169 0.001049 0.002876 0.22539 0.00034166667
313	644389 28 30776 30776 0.027691 0.027691 1 0.001949 0.001949 0.001949 3.798601e-06
314	644417 56 30802 68706 0.027698 0.066988 2 0.000715 0.000715 0.00143 1.02245e-06
315	644473 520 31139 365985 0.028138 0.440315 18 0.001049 0.002131 0.022386 3.0064348e-05
316	644993 114 31162 150320 0.028143 0.158235 4 0.002554 0.005134 0.014293 5.5488945e-05
317	645107 83 31188 73819 0.028158 0.072513 3 0.001216 0.00489 0.007414 2.710162e-05
318	645190 258 31297 226988 0.028287 0.250613 9 0.001216 0.003608 0.01714 3.9450798e-05
319	645448 84 31319 65776 0.028289 0.064188 3 0.012267 0.025512 0.057073 0.001173599869
320	645532 171 31388 182392 0.028354 0.196589 6 0.001216 0.002677 0.00983 1.8288734e-05
321	645703 487 31411 248043 0.028363 0.276845 17 0.001216 0.004403 0.030912 6.7215792e-05
322	646190 1986 31445 718813 0.028377 1.140308 69 0.010176 0.045481 1.040919 0.019460069193
323	648176 85 31492 102958 0.028421 0.103205 3 0.001277 0.004138 0.009026 3.1793094e-05
324	648261 56 31530 58256 0.028436 0.056516 2 0.025759 0.026864 0.052623 0.001385200577
325	648317 3257 31581 880426 0.028465 1.635135 113 0.010176 0.038918 1.436084 0.020832825056
326	651574 8708 31837 1236854 0.028675 3.69379 297 0.010176 0.025847 3.135593 0.033558783927
327	660282 3020 31943 795486 0.028799 1.35729 105 0.001216 0.002881 0.143852 0.000209610846
328	663302 1831 32248 667071 0.029222 1.015809 64 0.001216 0.00623 0.16854 0.000542335506
329	665133 55 32355 50619 0.029467 0.04907 2 0.016519 0.026741 0.04326 0.000987958442
330	665188 56 32513 59540 0.029652 0.057752 2 0.001216 0.001236 0.002452 3.006352e-06
331	665244 3058 32651 873098 0.029771 1.608884 106 0.010176 0.050689 1.406213 0.023207166541
332	668302 542 32741 358037 0.02983 0.428248 19 0.011499 0.026951 0.347265 0.006727732043
333	668844 28 32779 32779 0.029859 0.029859 1 0.027049 0.027049 0.027049 0.000731648401
334	668872 3249 32841 880626 0.029914 1.636017 113 0.000882 0.003583 0.197413 0.000439942551
335	672121 55 33002 50679 0.030069 0.049133 2 0.01784 0.027294 0.045134 0.001063228036
336	672176 56 33224 52596 0.030245 0.051333 2 0.003664 0.005564 0.009228 4.4382992e-05
337	672232 1991 33268 719377 0.030292 1.141524 69 0.001216 0.003869 0.097883 0.000153282453
338	674223 598 33574 433580 0.030652 0.546743 21 0.001383 0.006504 0.073477 0.000298063301
339	674821 342 33870 315359 0.031118 0.365475 12 0.016409 0.037672 0.321065 0.009154474469
340	675163 314 33966 237987 0.031177 0.264433 11 0.016733 0.028247 0.236693 0.005219541403
341	675477 143 34019 160219 0.031206 0.169905 5 0.028533 0.036737 0.160488 0.00519434259
342	675620 56 34149 53522 0.031293 0.052232 2 0.001224 0.003099 0.004323 1.1101977e-05
343	675676 84 34282 68004 0.031393 0.066243 3 0.001234 0.003104 0.006393 1.5380597e-05
344	675760 227 34495 139283 0.031557 0.145223 8 0.013024 0.028627 0.128039 0.002240096797
345	675987 3058 35065 873480 0.032148 1.610267 106 0.001383 0.003863 0.20112 0.00042395833
346	679045 8697 35097 1237092 0.032193 3.695006 297 0.001216 0.006203 0.556585 0.001360637689
347	687742 56 35309 51594 0.032551 0.050286 2 0.001216 0.003084 0.0043 1.0989712e-05
348	687798 517 35343 319712 0.032571 0.372132 18 0.012724 0.02959 0.343895 0.006965943973
349	688315 340 35378 279793 0.0326 0.316432 12 0.0144 0.037757 0.298442 0.008093923864
350	688655 83 35402 109917 0.032606 0.110999 3 0.0294 0.035574 0.099588 0.003327998472
351	688738 3165 35425 848531 0.032612 1.526198 110 0.010176 0.029682 1.343982 0.017407453928
352	691903 313 36176 239115 0.033269 0.265877 11 0.001231 0.003403 0.026254 6.7244824e-05
353	692216 28 36291 36291 0.033328 0.033328 1 0.003469 0.003469 0.003469 1.2033961e-05
354	692244 142 36413 161079 0.033442 0.170822 5 0.000901 0.002377 0.007661 1.3815415e-05
355	692386 516 36664 320651 0.033787 0.373348 18 0.001216 0.002809 0.026472 4.2830188e-05
356	692902 345 36694 280562 0.033816 0.317648 12 0.001216 0.002351 0.016447 2.3765975e-05
357	693247 772 36877 424152 0.034041 0.530618 27 0.010919 0.036861 0.487875 0.010440244645
358	694019 28 36972 36972 0.034106 0.034106 1 0.031072 0.031072 0.031072 0.000965469184
359	694047 114 37093 149499 0.034211 0.157377 4 0.031056 0.038033 0.141984 0.005072558702
360	694161 2103 37309 724413 0.034392 1.154677 73 0.011623 0.031513 0.955494 0.012991709674
361	696264 3168 37338 849154 0.034409 1.527461 110 0.001216 0.003622 0.180549 0.000344655051
362	699432 225 37520 141093 0.034607 0.147188 8 0.001383 0.00305 0.016219 3.4813825e-05
363	699657 56 37995 75688 0.035435 0.074408 2 0.032523 0.037757 0.07028 0.002483336578
364	699713 226 38048 195748 0.0355 0.212526 8 0.021213 0.032364 0.192617 0.004733065005
365	699939 404 38136 357313 0.035605 0.427028 14 0.017172 0.043385 0.374835 0.010964761711
366	700343 2094 38682 724997 0.036052 1.155893 73 0.001216 0.006452 0.19752 0.000689641332
367	702437 28 38730 38730 0.036101 0.036101 1 0.001995 0.001995 0.001995 3.980025e-06
368	702465 780 38795 425782 0.036153 0.533069 27 0.001216 0.002451 0.042333 7.2102811e-05
369	703245 341 39016 317887 0.036456 0.369499 12 0.001383 0.005989 0.045449 0.000197707737
370	703586 56 39177 78043 0.036651 0.076899 2 0.001216 0.002491 0.003707 7.683737e-06
371	703642 342 39293 283874 0.036782 0.322102 12 0.013021 0.037047 0.300701 0.008183514147
372	703984 1635 39405 605693 0.036894 0.883552 57 0.008729 0.033656 0.678431 0.009318225787
373	705619 514 39498 389171 0.036999 0.47496 18 0.014001 0.039136 0.41334 0.010711023418
374	706133 85 39785 113783 0.037282 0.115432 3 0.003529 0.004676 0.012638 5.3970306e-05
375	706218 717 40437 387584 0.038241 0.472176 25 0.010757 0.035054 0.441345 0.008633671601
376	706935 1896 40545 726663 0.038393 1.160097 66 0.010176 0.044645 0.949429 0.017424027949
377	708831 545 40567 360845 0.03841 0.433058 19 0.001427 0.00858 0.082914 0.00041914314
378	709376 342 40819 285004 0.038708 0.32346 12 0.001216 0.002652 0.01978 3.574049e-05
379	709718 228 40879 198976 0.038771 0.216466 8 0.001273 0.004911 0.020713 6.5947917e-05
380	709946 314 41141 271502 0.039084 0.306392 11 0.015465 0.036767 0.287772 0.00812687539
381	710260 113 41246 153015 0.039134 0.16109 4 0.002769 0.004923 0.015951 6.6355775e-05
382	710373 714 41388 388093 0.03929 0.473225 25 0.001049 0.002356 0.028693 3.5016837e-05
383	711087 489 41697 368351 0.039588 0.443625 17 0.015562 0.036503 0.36297 0.008203577276
384	711576 83 41871 112053 0.039787 0.11374 3 0.03437 0.038153 0.109206 0.003982590798
385	711659 654 42574 393188 0.040478 0.48108 23 0.011067 0.037305 0.440185 0.010120068445
386	712313 84 42626 112803 0.040502 0.114455 3 0.000715 0.000715 0.002145 1.533675e-06
387	712397 28 43330 43330 0.041181 0.041181 1 0.037771 0.037771 0.037771 0.001426648441
388	712425 662 43701 394176 0.041694 0.482296 23 0.001216 0.003877 0.038938 8.1959322e-05
389	713087 317 43815 272611 0.041823 0.307806 11 0.000882 0.002766 0.017 3.0639546e-05
390	713404 198 43852 211962 0.041872 0.232134 7 0.020217 0.039488 0.219581 0.007178372931
391	713602 28 43882 43882 0.041896 0.041896 1 0.000715 0.000715 0.000715 5.11225e-07
392	713630 400 44259 358332 0.04224 0.428623 14 0.001595 0.006635 0.050531 0.000215203753
393	714030 1148 44461 559943 0.042423 0.791485 40 0.010176 0.039134 0.640692 0.012032176414
394	715178 656 44578 416989 0.042575 0.518708 23 0.006379 0.039012 0.420407 0.009850538853
395	715834 113 45081 143492 0.043266 0.150201 4 0.031141 0.039991 0.141721 0.005060531535
396	715947 198 45106 212923 0.043284 0.23335 7 0.001216 0.002557 0.010647 1.7678461e-05
397	716145 1205 45845 569828 0.043922 0.810626 42 0.011666 0.040461 0.777668 0.016897683492
398	717350 112 46202 144518 0.044482 0.151417 4 0.001216 0.00255 0.006421 1.1530533e-05
399	717462 1209 46328 570283 0.044653 0.811341 42 0.000715 0.000774 0.030212 2.1739968e-05
400	718671 84 46354 119359 0.04466 0.122086 3 0.036696 0.041436 0.116179 0.004511112721
401	718755 515 46939 391952 0.045095 0.479355 18 0.001412 0.008096 0.062962 0.000255770432
402	719270 1902 47117 727220 0.045209 1.162304 66 0.001383 0.006816 0.209567 0.000754907139
403	721172 6007 47307 1163600 0.045316 3.111473 206 0.011623 0.041804 2.720552 0.039439150986
404	727179 1639 47427 607203 0.045441 0.886416 57 0.001216 0.009021 0.204747 0.000866489339
405	728818 84 47968 121219 0.046119 0.124455 3 0.001224 0.002369 0.005052 9.239018e-06
406	728902 804 48000 433344 0.046148 0.546338 28 0.010176 0.042822 0.48896 0.01077872374
407	729706 230 48580 219707 0.046605 0.241941 8 0.022576 0.043265 0.225596 0.00667505184
408	729936 6006 48665 1164132 0.046699 3.114898 206 0.001383 0.005192 0.390834 0.000886591648
409	735942 85 48711 130475 0.046757 0.134791 3 0.037748 0.043398 0.11994 0.004813272344
410	736027 801 49331 434752 0.04758 0.548842 28 0.000882 0.003626 0.056556 0.000137818376
411	736828 486 49878 369704 0.048118 0.445639 17 0.001986 0.00853 0.079584 0.00042488955
412	737314 56 49924 92910 0.048151 0.092548 2 0.040027 0.044486 0.084513 0.003581164925
413	737370 229 50472 220691 0.048881 0.243157 8 0.001216 0.002291 0.014221 2.6939839e-05
414	737599 1814 50810 660475 0.049269 1.002358 63 0.010176 0.045841 0.880849 0.015369516275
415	739413 85 50969 115271 0.049393 0.117499 3 0.028612 0.046002 0.108683 0.004095527309
416	739498 660 51022 419290 0.049458 0.521921 23 0.001383 0.006914 0.097951 0.000465206839
417	740158 170 51063 217336 0.049498 0.239028 6 0.024986 0.045884 0.220254 0.008395311738
418	740328 1150 51158 561458 0.049626 0.793959 40 0.001216 0.007203 0.149978 0.000662800922
419	741478 28 52153 52153 0.050892 0.050892 1 0.047176 0.047176 0.047176 0.002225574976
420	741506 85 52517 118136 0.051274 0.120613 3 0.001881 0.003544 0.008539 2.5795093e-05
421	741591 1815 52799 661031 0.051534 1.00324 63 0.000882 0.003611 0.118963 0.000266917937
422	743406 286 53256 262501 0.052057 0.295287 10 0.015067 0.04868 0.270014 0.0082760887
423	743692 288 53625 288361 0.052286 0.327743 10 0.019478 0.048519 0.2988 0.009665982736
424	743980 84 53786 134754 0.052407 0.140054 3 0.005263 0.005842 0.016755 9.3750633e-05
425	744064 55 53915 98516 0.052521 0.098562 2 0.00437 0.006014 0.010384 5.5265096e-05
426	744119 170 54704 219809 0.053289 0.242063 6 0.001899 0.003791 0.018195 5.7742719e-05
427	744289 200 55228 234715 0.053727 0.26022 7 0.023461 0.049909 0.228031 0.007955106089
428	744489 287 56178 263718 0.054595 0.296503 10 0.001216 0.003655 0.023112 6.2005894e-05
429	744776 27 56327 56327 0.05477 0.05477 1 0.003878 0.003878 0.003878 1.5038884e-05
430	744803 281 56440 264882 0.054845 0.298122 10 0.016953 0.051366 0.276822 0.00871466348
431	745084 200 56770 242812 0.055121 0.270119 7 0.025154 0.051252 0.248119 0.009256228151
432	745284 169 57823 196632 0.056192 0.213683 6 0.024252 0.052662 0.197785 0.007057673455
433	745453 287 58022 291379 0.056325 0.331823 10 0.001785 0.00408 0.029256 9.1895764e-05
434	745740 285 59019 265932 0.057271 0.299338 10 0.001216 0.002652 0.019037 4.0049245e-05
435	746025 115 59826 170928 0.057956 0.182657 4 0.032424 0.054036 0.166828 0.007218342706
436	746140 172 60511 197850 0.058779 0.215121 6 0.001216 0.003744 0.013806 3.5910138e-05
437	746312 200 61006 244116 0.05918 0.271502 7 0.001383 0.004059 0.019514 6.2471788e-05
438	746512 144 61192 191668 0.059303 0.207984 5 0.029911 0.055281 0.190626 0.007709581788
439	746656 1845 62491 716201 0.060697 1.133831 64 0.011623 0.056726 1.039828 0.02080984869
440	748501 200 62852 235906 0.061093 0.26167 7 0.00145 0.007366 0.029821 0.000145535701
441	748701 115 63963 173913 0.062082 0.186323 4 0.003666 0.004126 0.015575 6.0804441e-05
442	748816 144 64146 192808 0.062196 0.209367 5 0.001383 0.004136 0.014719 4.8604579e-05
443	748960 1846 65039 716594 0.063332 1.135047 64 0.001216 0.004151 0.091248 0.00014483905

