version 2
run General-0-20220427-23:36:52-22764
attr configname General
attr datetime 20220427-23:36:52
attr experiment General
attr inifile Jellyfish__fvj_dc_big_traffic_seed2.ini
attr iterationvars ""
attr iterationvarsf ""
attr measurement ""
attr network Jellyfish__fvj_dc_big_traffic_seed2
attr processid 22764
attr repetition 0
attr replication #0
attr resultdir results
attr runnumber 0
attr seedset 0
param **.ppp[*].ppp.queue.typename "\"DropTailQueue\""
param **.ppp[*].ppp.queue.packetCapacity 100
param *.configurator.config "xmldoc(\"Jellyfish__fvj_dc_big_traffic_seed2.xml\")"
param **.sink_000.numApps 1
param **.sink_000.app[0].typename "\"TcpGenericServerApp\""
param **.sink_000.app[0].localAddress "\"\""
param **.sink_000.app[0].localPort 1100
param **.sink_000.app[0].replyDelay 0s
param **.sink_001.numApps 1
param **.sink_001.app[0].typename "\"TcpGenericServerApp\""
param **.sink_001.app[0].localAddress "\"\""
param **.sink_001.app[0].localPort 1100
param **.sink_001.app[0].replyDelay 0s
param **.sink_002.numApps 1
param **.sink_002.app[0].typename "\"TcpGenericServerApp\""
param **.sink_002.app[0].localAddress "\"\""
param **.sink_002.app[0].localPort 1100
param **.sink_002.app[0].replyDelay 0s
param **.sink_003.numApps 1
param **.sink_003.app[0].typename "\"TcpGenericServerApp\""
param **.sink_003.app[0].localAddress "\"\""
param **.sink_003.app[0].localPort 1100
param **.sink_003.app[0].replyDelay 0s
param **.sink_004.numApps 1
param **.sink_004.app[0].typename "\"TcpGenericServerApp\""
param **.sink_004.app[0].localAddress "\"\""
param **.sink_004.app[0].localPort 1100
param **.sink_004.app[0].replyDelay 0s
param **.sink_005.numApps 1
param **.sink_005.app[0].typename "\"TcpGenericServerApp\""
param **.sink_005.app[0].localAddress "\"\""
param **.sink_005.app[0].localPort 1100
param **.sink_005.app[0].replyDelay 0s
param **.sink_006.numApps 1
param **.sink_006.app[0].typename "\"TcpGenericServerApp\""
param **.sink_006.app[0].localAddress "\"\""
param **.sink_006.app[0].localPort 1100
param **.sink_006.app[0].replyDelay 0s
param **.sink_007.numApps 1
param **.sink_007.app[0].typename "\"TcpGenericServerApp\""
param **.sink_007.app[0].localAddress "\"\""
param **.sink_007.app[0].localPort 1100
param **.sink_007.app[0].replyDelay 0s
param **.sink_008.numApps 1
param **.sink_008.app[0].typename "\"TcpGenericServerApp\""
param **.sink_008.app[0].localAddress "\"\""
param **.sink_008.app[0].localPort 1100
param **.sink_008.app[0].replyDelay 0s
param **.sink_009.numApps 1
param **.sink_009.app[0].typename "\"TcpGenericServerApp\""
param **.sink_009.app[0].localAddress "\"\""
param **.sink_009.app[0].localPort 1100
param **.sink_009.app[0].replyDelay 0s
param **.sink_010.numApps 1
param **.sink_010.app[0].typename "\"TcpGenericServerApp\""
param **.sink_010.app[0].localAddress "\"\""
param **.sink_010.app[0].localPort 1100
param **.sink_010.app[0].replyDelay 0s
param **.sink_011.numApps 1
param **.sink_011.app[0].typename "\"TcpGenericServerApp\""
param **.sink_011.app[0].localAddress "\"\""
param **.sink_011.app[0].localPort 1100
param **.sink_011.app[0].replyDelay 0s
param **.sink_012.numApps 1
param **.sink_012.app[0].typename "\"TcpGenericServerApp\""
param **.sink_012.app[0].localAddress "\"\""
param **.sink_012.app[0].localPort 1100
param **.sink_012.app[0].replyDelay 0s
param **.sink_013.numApps 1
param **.sink_013.app[0].typename "\"TcpGenericServerApp\""
param **.sink_013.app[0].localAddress "\"\""
param **.sink_013.app[0].localPort 1100
param **.sink_013.app[0].replyDelay 0s
param **.sink_014.numApps 1
param **.sink_014.app[0].typename "\"TcpGenericServerApp\""
param **.sink_014.app[0].localAddress "\"\""
param **.sink_014.app[0].localPort 1100
param **.sink_014.app[0].replyDelay 0s
param **.sink_015.numApps 1
param **.sink_015.app[0].typename "\"TcpGenericServerApp\""
param **.sink_015.app[0].localAddress "\"\""
param **.sink_015.app[0].localPort 1100
param **.sink_015.app[0].replyDelay 0s
param **.sink_016.numApps 1
param **.sink_016.app[0].typename "\"TcpGenericServerApp\""
param **.sink_016.app[0].localAddress "\"\""
param **.sink_016.app[0].localPort 1100
param **.sink_016.app[0].replyDelay 0s
param **.sink_017.numApps 1
param **.sink_017.app[0].typename "\"TcpGenericServerApp\""
param **.sink_017.app[0].localAddress "\"\""
param **.sink_017.app[0].localPort 1100
param **.sink_017.app[0].replyDelay 0s
param **.sink_018.numApps 1
param **.sink_018.app[0].typename "\"TcpGenericServerApp\""
param **.sink_018.app[0].localAddress "\"\""
param **.sink_018.app[0].localPort 1100
param **.sink_018.app[0].replyDelay 0s
param **.sink_019.numApps 1
param **.sink_019.app[0].typename "\"TcpGenericServerApp\""
param **.sink_019.app[0].localAddress "\"\""
param **.sink_019.app[0].localPort 1100
param **.sink_019.app[0].replyDelay 0s
param **.sink_020.numApps 1
param **.sink_020.app[0].typename "\"TcpGenericServerApp\""
param **.sink_020.app[0].localAddress "\"\""
param **.sink_020.app[0].localPort 1100
param **.sink_020.app[0].replyDelay 0s
param **.sink_021.numApps 1
param **.sink_021.app[0].typename "\"TcpGenericServerApp\""
param **.sink_021.app[0].localAddress "\"\""
param **.sink_021.app[0].localPort 1100
param **.sink_021.app[0].replyDelay 0s
param **.sink_022.numApps 1
param **.sink_022.app[0].typename "\"TcpGenericServerApp\""
param **.sink_022.app[0].localAddress "\"\""
param **.sink_022.app[0].localPort 1100
param **.sink_022.app[0].replyDelay 0s
param **.sink_023.numApps 1
param **.sink_023.app[0].typename "\"TcpGenericServerApp\""
param **.sink_023.app[0].localAddress "\"\""
param **.sink_023.app[0].localPort 1100
param **.sink_023.app[0].replyDelay 0s
param **.sink_024.numApps 1
param **.sink_024.app[0].typename "\"TcpGenericServerApp\""
param **.sink_024.app[0].localAddress "\"\""
param **.sink_024.app[0].localPort 1100
param **.sink_024.app[0].replyDelay 0s
param **.sink_025.numApps 1
param **.sink_025.app[0].typename "\"TcpGenericServerApp\""
param **.sink_025.app[0].localAddress "\"\""
param **.sink_025.app[0].localPort 1100
param **.sink_025.app[0].replyDelay 0s
param **.sink_026.numApps 1
param **.sink_026.app[0].typename "\"TcpGenericServerApp\""
param **.sink_026.app[0].localAddress "\"\""
param **.sink_026.app[0].localPort 1100
param **.sink_026.app[0].replyDelay 0s
param **.sink_027.numApps 1
param **.sink_027.app[0].typename "\"TcpGenericServerApp\""
param **.sink_027.app[0].localAddress "\"\""
param **.sink_027.app[0].localPort 1100
param **.sink_027.app[0].replyDelay 0s
param **.sink_028.numApps 1
param **.sink_028.app[0].typename "\"TcpGenericServerApp\""
param **.sink_028.app[0].localAddress "\"\""
param **.sink_028.app[0].localPort 1100
param **.sink_028.app[0].replyDelay 0s
param **.sink_029.numApps 1
param **.sink_029.app[0].typename "\"TcpGenericServerApp\""
param **.sink_029.app[0].localAddress "\"\""
param **.sink_029.app[0].localPort 1100
param **.sink_029.app[0].replyDelay 0s
param **.sink_030.numApps 1
param **.sink_030.app[0].typename "\"TcpGenericServerApp\""
param **.sink_030.app[0].localAddress "\"\""
param **.sink_030.app[0].localPort 1100
param **.sink_030.app[0].replyDelay 0s
param **.sink_031.numApps 1
param **.sink_031.app[0].typename "\"TcpGenericServerApp\""
param **.sink_031.app[0].localAddress "\"\""
param **.sink_031.app[0].localPort 1100
param **.sink_031.app[0].replyDelay 0s
param **.sink_032.numApps 1
param **.sink_032.app[0].typename "\"TcpGenericServerApp\""
param **.sink_032.app[0].localAddress "\"\""
param **.sink_032.app[0].localPort 1100
param **.sink_032.app[0].replyDelay 0s
param **.sink_033.numApps 1
param **.sink_033.app[0].typename "\"TcpGenericServerApp\""
param **.sink_033.app[0].localAddress "\"\""
param **.sink_033.app[0].localPort 1100
param **.sink_033.app[0].replyDelay 0s
param **.sink_034.numApps 1
param **.sink_034.app[0].typename "\"TcpGenericServerApp\""
param **.sink_034.app[0].localAddress "\"\""
param **.sink_034.app[0].localPort 1100
param **.sink_034.app[0].replyDelay 0s
param **.sink_035.numApps 1
param **.sink_035.app[0].typename "\"TcpGenericServerApp\""
param **.sink_035.app[0].localAddress "\"\""
param **.sink_035.app[0].localPort 1100
param **.sink_035.app[0].replyDelay 0s
param **.sink_036.numApps 1
param **.sink_036.app[0].typename "\"TcpGenericServerApp\""
param **.sink_036.app[0].localAddress "\"\""
param **.sink_036.app[0].localPort 1100
param **.sink_036.app[0].replyDelay 0s
param **.sink_037.numApps 1
param **.sink_037.app[0].typename "\"TcpGenericServerApp\""
param **.sink_037.app[0].localAddress "\"\""
param **.sink_037.app[0].localPort 1100
param **.sink_037.app[0].replyDelay 0s
param **.sink_038.numApps 1
param **.sink_038.app[0].typename "\"TcpGenericServerApp\""
param **.sink_038.app[0].localAddress "\"\""
param **.sink_038.app[0].localPort 1100
param **.sink_038.app[0].replyDelay 0s
param **.sink_039.numApps 1
param **.sink_039.app[0].typename "\"TcpGenericServerApp\""
param **.sink_039.app[0].localAddress "\"\""
param **.sink_039.app[0].localPort 1100
param **.sink_039.app[0].replyDelay 0s
param **.sink_040.numApps 1
param **.sink_040.app[0].typename "\"TcpGenericServerApp\""
param **.sink_040.app[0].localAddress "\"\""
param **.sink_040.app[0].localPort 1100
param **.sink_040.app[0].replyDelay 0s
param **.sink_041.numApps 1
param **.sink_041.app[0].typename "\"TcpGenericServerApp\""
param **.sink_041.app[0].localAddress "\"\""
param **.sink_041.app[0].localPort 1100
param **.sink_041.app[0].replyDelay 0s
param **.sink_042.numApps 1
param **.sink_042.app[0].typename "\"TcpGenericServerApp\""
param **.sink_042.app[0].localAddress "\"\""
param **.sink_042.app[0].localPort 1100
param **.sink_042.app[0].replyDelay 0s
param **.sink_043.numApps 1
param **.sink_043.app[0].typename "\"TcpGenericServerApp\""
param **.sink_043.app[0].localAddress "\"\""
param **.sink_043.app[0].localPort 1100
param **.sink_043.app[0].replyDelay 0s
param **.sink_044.numApps 1
param **.sink_044.app[0].typename "\"TcpGenericServerApp\""
param **.sink_044.app[0].localAddress "\"\""
param **.sink_044.app[0].localPort 1100
param **.sink_044.app[0].replyDelay 0s
param **.sink_045.numApps 1
param **.sink_045.app[0].typename "\"TcpGenericServerApp\""
param **.sink_045.app[0].localAddress "\"\""
param **.sink_045.app[0].localPort 1100
param **.sink_045.app[0].replyDelay 0s
param **.sink_046.numApps 1
param **.sink_046.app[0].typename "\"TcpGenericServerApp\""
param **.sink_046.app[0].localAddress "\"\""
param **.sink_046.app[0].localPort 1100
param **.sink_046.app[0].replyDelay 0s
param **.sink_047.numApps 1
param **.sink_047.app[0].typename "\"TcpGenericServerApp\""
param **.sink_047.app[0].localAddress "\"\""
param **.sink_047.app[0].localPort 1100
param **.sink_047.app[0].replyDelay 0s
param **.sink_048.numApps 1
param **.sink_048.app[0].typename "\"TcpGenericServerApp\""
param **.sink_048.app[0].localAddress "\"\""
param **.sink_048.app[0].localPort 1100
param **.sink_048.app[0].replyDelay 0s
param **.sink_049.numApps 1
param **.sink_049.app[0].typename "\"TcpGenericServerApp\""
param **.sink_049.app[0].localAddress "\"\""
param **.sink_049.app[0].localPort 1100
param **.sink_049.app[0].replyDelay 0s
param **.sink_050.numApps 1
param **.sink_050.app[0].typename "\"TcpGenericServerApp\""
param **.sink_050.app[0].localAddress "\"\""
param **.sink_050.app[0].localPort 1100
param **.sink_050.app[0].replyDelay 0s
param **.sink_051.numApps 1
param **.sink_051.app[0].typename "\"TcpGenericServerApp\""
param **.sink_051.app[0].localAddress "\"\""
param **.sink_051.app[0].localPort 1100
param **.sink_051.app[0].replyDelay 0s
param **.sink_052.numApps 1
param **.sink_052.app[0].typename "\"TcpGenericServerApp\""
param **.sink_052.app[0].localAddress "\"\""
param **.sink_052.app[0].localPort 1100
param **.sink_052.app[0].replyDelay 0s
param **.sink_053.numApps 1
param **.sink_053.app[0].typename "\"TcpGenericServerApp\""
param **.sink_053.app[0].localAddress "\"\""
param **.sink_053.app[0].localPort 1100
param **.sink_053.app[0].replyDelay 0s
param **.sink_054.numApps 1
param **.sink_054.app[0].typename "\"TcpGenericServerApp\""
param **.sink_054.app[0].localAddress "\"\""
param **.sink_054.app[0].localPort 1100
param **.sink_054.app[0].replyDelay 0s
param **.sink_055.numApps 1
param **.sink_055.app[0].typename "\"TcpGenericServerApp\""
param **.sink_055.app[0].localAddress "\"\""
param **.sink_055.app[0].localPort 1100
param **.sink_055.app[0].replyDelay 0s
param **.sink_056.numApps 1
param **.sink_056.app[0].typename "\"TcpGenericServerApp\""
param **.sink_056.app[0].localAddress "\"\""
param **.sink_056.app[0].localPort 1100
param **.sink_056.app[0].replyDelay 0s
param **.sink_057.numApps 1
param **.sink_057.app[0].typename "\"TcpGenericServerApp\""
param **.sink_057.app[0].localAddress "\"\""
param **.sink_057.app[0].localPort 1100
param **.sink_057.app[0].replyDelay 0s
param **.sink_058.numApps 1
param **.sink_058.app[0].typename "\"TcpGenericServerApp\""
param **.sink_058.app[0].localAddress "\"\""
param **.sink_058.app[0].localPort 1100
param **.sink_058.app[0].replyDelay 0s
param **.sink_059.numApps 1
param **.sink_059.app[0].typename "\"TcpGenericServerApp\""
param **.sink_059.app[0].localAddress "\"\""
param **.sink_059.app[0].localPort 1100
param **.sink_059.app[0].replyDelay 0s
param **.sink_060.numApps 1
param **.sink_060.app[0].typename "\"TcpGenericServerApp\""
param **.sink_060.app[0].localAddress "\"\""
param **.sink_060.app[0].localPort 1100
param **.sink_060.app[0].replyDelay 0s
param **.sink_061.numApps 1
param **.sink_061.app[0].typename "\"TcpGenericServerApp\""
param **.sink_061.app[0].localAddress "\"\""
param **.sink_061.app[0].localPort 1100
param **.sink_061.app[0].replyDelay 0s
param **.sink_062.numApps 1
param **.sink_062.app[0].typename "\"TcpGenericServerApp\""
param **.sink_062.app[0].localAddress "\"\""
param **.sink_062.app[0].localPort 1100
param **.sink_062.app[0].replyDelay 0s
param **.sink_063.numApps 1
param **.sink_063.app[0].typename "\"TcpGenericServerApp\""
param **.sink_063.app[0].localAddress "\"\""
param **.sink_063.app[0].localPort 1100
param **.sink_063.app[0].replyDelay 0s
param **.sink_064.numApps 1
param **.sink_064.app[0].typename "\"TcpGenericServerApp\""
param **.sink_064.app[0].localAddress "\"\""
param **.sink_064.app[0].localPort 1100
param **.sink_064.app[0].replyDelay 0s
param **.sink_065.numApps 1
param **.sink_065.app[0].typename "\"TcpGenericServerApp\""
param **.sink_065.app[0].localAddress "\"\""
param **.sink_065.app[0].localPort 1100
param **.sink_065.app[0].replyDelay 0s
param **.sink_066.numApps 1
param **.sink_066.app[0].typename "\"TcpGenericServerApp\""
param **.sink_066.app[0].localAddress "\"\""
param **.sink_066.app[0].localPort 1100
param **.sink_066.app[0].replyDelay 0s
param **.sink_067.numApps 1
param **.sink_067.app[0].typename "\"TcpGenericServerApp\""
param **.sink_067.app[0].localAddress "\"\""
param **.sink_067.app[0].localPort 1100
param **.sink_067.app[0].replyDelay 0s
param **.sink_068.numApps 1
param **.sink_068.app[0].typename "\"TcpGenericServerApp\""
param **.sink_068.app[0].localAddress "\"\""
param **.sink_068.app[0].localPort 1100
param **.sink_068.app[0].replyDelay 0s
param **.sink_069.numApps 1
param **.sink_069.app[0].typename "\"TcpGenericServerApp\""
param **.sink_069.app[0].localAddress "\"\""
param **.sink_069.app[0].localPort 1100
param **.sink_069.app[0].replyDelay 0s
param **.sink_070.numApps 1
param **.sink_070.app[0].typename "\"TcpGenericServerApp\""
param **.sink_070.app[0].localAddress "\"\""
param **.sink_070.app[0].localPort 1100
param **.sink_070.app[0].replyDelay 0s
param **.sink_071.numApps 1
param **.sink_071.app[0].typename "\"TcpGenericServerApp\""
param **.sink_071.app[0].localAddress "\"\""
param **.sink_071.app[0].localPort 1100
param **.sink_071.app[0].replyDelay 0s
param **.sink_072.numApps 1
param **.sink_072.app[0].typename "\"TcpGenericServerApp\""
param **.sink_072.app[0].localAddress "\"\""
param **.sink_072.app[0].localPort 1100
param **.sink_072.app[0].replyDelay 0s
param **.sink_073.numApps 1
param **.sink_073.app[0].typename "\"TcpGenericServerApp\""
param **.sink_073.app[0].localAddress "\"\""
param **.sink_073.app[0].localPort 1100
param **.sink_073.app[0].replyDelay 0s
param **.sink_074.numApps 1
param **.sink_074.app[0].typename "\"TcpGenericServerApp\""
param **.sink_074.app[0].localAddress "\"\""
param **.sink_074.app[0].localPort 1100
param **.sink_074.app[0].replyDelay 0s
param **.sink_075.numApps 1
param **.sink_075.app[0].typename "\"TcpGenericServerApp\""
param **.sink_075.app[0].localAddress "\"\""
param **.sink_075.app[0].localPort 1100
param **.sink_075.app[0].replyDelay 0s
param **.sink_076.numApps 1
param **.sink_076.app[0].typename "\"TcpGenericServerApp\""
param **.sink_076.app[0].localAddress "\"\""
param **.sink_076.app[0].localPort 1100
param **.sink_076.app[0].replyDelay 0s
param **.sink_077.numApps 1
param **.sink_077.app[0].typename "\"TcpGenericServerApp\""
param **.sink_077.app[0].localAddress "\"\""
param **.sink_077.app[0].localPort 1100
param **.sink_077.app[0].replyDelay 0s
param **.sink_078.numApps 1
param **.sink_078.app[0].typename "\"TcpGenericServerApp\""
param **.sink_078.app[0].localAddress "\"\""
param **.sink_078.app[0].localPort 1100
param **.sink_078.app[0].replyDelay 0s
param **.sink_079.numApps 1
param **.sink_079.app[0].typename "\"TcpGenericServerApp\""
param **.sink_079.app[0].localAddress "\"\""
param **.sink_079.app[0].localPort 1100
param **.sink_079.app[0].replyDelay 0s
param **.sink_080.numApps 1
param **.sink_080.app[0].typename "\"TcpGenericServerApp\""
param **.sink_080.app[0].localAddress "\"\""
param **.sink_080.app[0].localPort 1100
param **.sink_080.app[0].replyDelay 0s
param **.sink_081.numApps 1
param **.sink_081.app[0].typename "\"TcpGenericServerApp\""
param **.sink_081.app[0].localAddress "\"\""
param **.sink_081.app[0].localPort 1100
param **.sink_081.app[0].replyDelay 0s
param **.sink_082.numApps 1
param **.sink_082.app[0].typename "\"TcpGenericServerApp\""
param **.sink_082.app[0].localAddress "\"\""
param **.sink_082.app[0].localPort 1100
param **.sink_082.app[0].replyDelay 0s
param **.sink_083.numApps 1
param **.sink_083.app[0].typename "\"TcpGenericServerApp\""
param **.sink_083.app[0].localAddress "\"\""
param **.sink_083.app[0].localPort 1100
param **.sink_083.app[0].replyDelay 0s
param **.sink_084.numApps 1
param **.sink_084.app[0].typename "\"TcpGenericServerApp\""
param **.sink_084.app[0].localAddress "\"\""
param **.sink_084.app[0].localPort 1100
param **.sink_084.app[0].replyDelay 0s
param **.sink_085.numApps 1
param **.sink_085.app[0].typename "\"TcpGenericServerApp\""
param **.sink_085.app[0].localAddress "\"\""
param **.sink_085.app[0].localPort 1100
param **.sink_085.app[0].replyDelay 0s
param **.sink_086.numApps 1
param **.sink_086.app[0].typename "\"TcpGenericServerApp\""
param **.sink_086.app[0].localAddress "\"\""
param **.sink_086.app[0].localPort 1100
param **.sink_086.app[0].replyDelay 0s
param **.sink_087.numApps 1
param **.sink_087.app[0].typename "\"TcpGenericServerApp\""
param **.sink_087.app[0].localAddress "\"\""
param **.sink_087.app[0].localPort 1100
param **.sink_087.app[0].replyDelay 0s
param **.sink_088.numApps 1
param **.sink_088.app[0].typename "\"TcpGenericServerApp\""
param **.sink_088.app[0].localAddress "\"\""
param **.sink_088.app[0].localPort 1100
param **.sink_088.app[0].replyDelay 0s
param **.sink_089.numApps 1
param **.sink_089.app[0].typename "\"TcpGenericServerApp\""
param **.sink_089.app[0].localAddress "\"\""
param **.sink_089.app[0].localPort 1100
param **.sink_089.app[0].replyDelay 0s
param **.sink_090.numApps 1
param **.sink_090.app[0].typename "\"TcpGenericServerApp\""
param **.sink_090.app[0].localAddress "\"\""
param **.sink_090.app[0].localPort 1100
param **.sink_090.app[0].replyDelay 0s
param **.sink_091.numApps 1
param **.sink_091.app[0].typename "\"TcpGenericServerApp\""
param **.sink_091.app[0].localAddress "\"\""
param **.sink_091.app[0].localPort 1100
param **.sink_091.app[0].replyDelay 0s
param **.sink_092.numApps 1
param **.sink_092.app[0].typename "\"TcpGenericServerApp\""
param **.sink_092.app[0].localAddress "\"\""
param **.sink_092.app[0].localPort 1100
param **.sink_092.app[0].replyDelay 0s
param **.sink_093.numApps 1
param **.sink_093.app[0].typename "\"TcpGenericServerApp\""
param **.sink_093.app[0].localAddress "\"\""
param **.sink_093.app[0].localPort 1100
param **.sink_093.app[0].replyDelay 0s
param **.sink_094.numApps 1
param **.sink_094.app[0].typename "\"TcpGenericServerApp\""
param **.sink_094.app[0].localAddress "\"\""
param **.sink_094.app[0].localPort 1100
param **.sink_094.app[0].replyDelay 0s
param **.sink_095.numApps 1
param **.sink_095.app[0].typename "\"TcpGenericServerApp\""
param **.sink_095.app[0].localAddress "\"\""
param **.sink_095.app[0].localPort 1100
param **.sink_095.app[0].replyDelay 0s
param **.sink_096.numApps 1
param **.sink_096.app[0].typename "\"TcpGenericServerApp\""
param **.sink_096.app[0].localAddress "\"\""
param **.sink_096.app[0].localPort 1100
param **.sink_096.app[0].replyDelay 0s
param **.sink_097.numApps 1
param **.sink_097.app[0].typename "\"TcpGenericServerApp\""
param **.sink_097.app[0].localAddress "\"\""
param **.sink_097.app[0].localPort 1100
param **.sink_097.app[0].replyDelay 0s
param **.sink_098.numApps 1
param **.sink_098.app[0].typename "\"TcpGenericServerApp\""
param **.sink_098.app[0].localAddress "\"\""
param **.sink_098.app[0].localPort 1100
param **.sink_098.app[0].replyDelay 0s
param **.sink_099.numApps 1
param **.sink_099.app[0].typename "\"TcpGenericServerApp\""
param **.sink_099.app[0].localAddress "\"\""
param **.sink_099.app[0].localPort 1100
param **.sink_099.app[0].replyDelay 0s
param **.sink_100.numApps 1
param **.sink_100.app[0].typename "\"TcpGenericServerApp\""
param **.sink_100.app[0].localAddress "\"\""
param **.sink_100.app[0].localPort 1100
param **.sink_100.app[0].replyDelay 0s
param **.sink_101.numApps 1
param **.sink_101.app[0].typename "\"TcpGenericServerApp\""
param **.sink_101.app[0].localAddress "\"\""
param **.sink_101.app[0].localPort 1100
param **.sink_101.app[0].replyDelay 0s
param **.sink_102.numApps 1
param **.sink_102.app[0].typename "\"TcpGenericServerApp\""
param **.sink_102.app[0].localAddress "\"\""
param **.sink_102.app[0].localPort 1100
param **.sink_102.app[0].replyDelay 0s
param **.sink_103.numApps 1
param **.sink_103.app[0].typename "\"TcpGenericServerApp\""
param **.sink_103.app[0].localAddress "\"\""
param **.sink_103.app[0].localPort 1100
param **.sink_103.app[0].replyDelay 0s
param **.sink_104.numApps 1
param **.sink_104.app[0].typename "\"TcpGenericServerApp\""
param **.sink_104.app[0].localAddress "\"\""
param **.sink_104.app[0].localPort 1100
param **.sink_104.app[0].replyDelay 0s
param **.sink_105.numApps 1
param **.sink_105.app[0].typename "\"TcpGenericServerApp\""
param **.sink_105.app[0].localAddress "\"\""
param **.sink_105.app[0].localPort 1100
param **.sink_105.app[0].replyDelay 0s
param **.sink_106.numApps 1
param **.sink_106.app[0].typename "\"TcpGenericServerApp\""
param **.sink_106.app[0].localAddress "\"\""
param **.sink_106.app[0].localPort 1100
param **.sink_106.app[0].replyDelay 0s
param **.sink_107.numApps 1
param **.sink_107.app[0].typename "\"TcpGenericServerApp\""
param **.sink_107.app[0].localAddress "\"\""
param **.sink_107.app[0].localPort 1100
param **.sink_107.app[0].replyDelay 0s
param **.sink_108.numApps 1
param **.sink_108.app[0].typename "\"TcpGenericServerApp\""
param **.sink_108.app[0].localAddress "\"\""
param **.sink_108.app[0].localPort 1100
param **.sink_108.app[0].replyDelay 0s
param **.sink_109.numApps 1
param **.sink_109.app[0].typename "\"TcpGenericServerApp\""
param **.sink_109.app[0].localAddress "\"\""
param **.sink_109.app[0].localPort 1100
param **.sink_109.app[0].replyDelay 0s
param **.sink_110.numApps 1
param **.sink_110.app[0].typename "\"TcpGenericServerApp\""
param **.sink_110.app[0].localAddress "\"\""
param **.sink_110.app[0].localPort 1100
param **.sink_110.app[0].replyDelay 0s
param **.sink_111.numApps 1
param **.sink_111.app[0].typename "\"TcpGenericServerApp\""
param **.sink_111.app[0].localAddress "\"\""
param **.sink_111.app[0].localPort 1100
param **.sink_111.app[0].replyDelay 0s
param **.sink_112.numApps 1
param **.sink_112.app[0].typename "\"TcpGenericServerApp\""
param **.sink_112.app[0].localAddress "\"\""
param **.sink_112.app[0].localPort 1100
param **.sink_112.app[0].replyDelay 0s
param **.sink_113.numApps 1
param **.sink_113.app[0].typename "\"TcpGenericServerApp\""
param **.sink_113.app[0].localAddress "\"\""
param **.sink_113.app[0].localPort 1100
param **.sink_113.app[0].replyDelay 0s
param **.sink_114.numApps 1
param **.sink_114.app[0].typename "\"TcpGenericServerApp\""
param **.sink_114.app[0].localAddress "\"\""
param **.sink_114.app[0].localPort 1100
param **.sink_114.app[0].replyDelay 0s
param **.sink_115.numApps 1
param **.sink_115.app[0].typename "\"TcpGenericServerApp\""
param **.sink_115.app[0].localAddress "\"\""
param **.sink_115.app[0].localPort 1100
param **.sink_115.app[0].replyDelay 0s
param **.sink_116.numApps 1
param **.sink_116.app[0].typename "\"TcpGenericServerApp\""
param **.sink_116.app[0].localAddress "\"\""
param **.sink_116.app[0].localPort 1100
param **.sink_116.app[0].replyDelay 0s
param **.sink_117.numApps 1
param **.sink_117.app[0].typename "\"TcpGenericServerApp\""
param **.sink_117.app[0].localAddress "\"\""
param **.sink_117.app[0].localPort 1100
param **.sink_117.app[0].replyDelay 0s
param **.sink_118.numApps 1
param **.sink_118.app[0].typename "\"TcpGenericServerApp\""
param **.sink_118.app[0].localAddress "\"\""
param **.sink_118.app[0].localPort 1100
param **.sink_118.app[0].replyDelay 0s
param **.sink_119.numApps 1
param **.sink_119.app[0].typename "\"TcpGenericServerApp\""
param **.sink_119.app[0].localAddress "\"\""
param **.sink_119.app[0].localPort 1100
param **.sink_119.app[0].replyDelay 0s
param **.sink_120.numApps 1
param **.sink_120.app[0].typename "\"TcpGenericServerApp\""
param **.sink_120.app[0].localAddress "\"\""
param **.sink_120.app[0].localPort 1100
param **.sink_120.app[0].replyDelay 0s
param **.sink_121.numApps 1
param **.sink_121.app[0].typename "\"TcpGenericServerApp\""
param **.sink_121.app[0].localAddress "\"\""
param **.sink_121.app[0].localPort 1100
param **.sink_121.app[0].replyDelay 0s
param **.sink_122.numApps 1
param **.sink_122.app[0].typename "\"TcpGenericServerApp\""
param **.sink_122.app[0].localAddress "\"\""
param **.sink_122.app[0].localPort 1100
param **.sink_122.app[0].replyDelay 0s
param **.sink_123.numApps 1
param **.sink_123.app[0].typename "\"TcpGenericServerApp\""
param **.sink_123.app[0].localAddress "\"\""
param **.sink_123.app[0].localPort 1100
param **.sink_123.app[0].replyDelay 0s
param **.sink_124.numApps 1
param **.sink_124.app[0].typename "\"TcpGenericServerApp\""
param **.sink_124.app[0].localAddress "\"\""
param **.sink_124.app[0].localPort 1100
param **.sink_124.app[0].replyDelay 0s
param **.sink_125.numApps 1
param **.sink_125.app[0].typename "\"TcpGenericServerApp\""
param **.sink_125.app[0].localAddress "\"\""
param **.sink_125.app[0].localPort 1100
param **.sink_125.app[0].replyDelay 0s
param **.sink_126.numApps 1
param **.sink_126.app[0].typename "\"TcpGenericServerApp\""
param **.sink_126.app[0].localAddress "\"\""
param **.sink_126.app[0].localPort 1100
param **.sink_126.app[0].replyDelay 0s
param **.sink_127.numApps 1
param **.sink_127.app[0].typename "\"TcpGenericServerApp\""
param **.sink_127.app[0].localAddress "\"\""
param **.sink_127.app[0].localPort 1100
param **.sink_127.app[0].replyDelay 0s
param **.sink_128.numApps 1
param **.sink_128.app[0].typename "\"TcpGenericServerApp\""
param **.sink_128.app[0].localAddress "\"\""
param **.sink_128.app[0].localPort 1100
param **.sink_128.app[0].replyDelay 0s
param **.sink_129.numApps 1
param **.sink_129.app[0].typename "\"TcpGenericServerApp\""
param **.sink_129.app[0].localAddress "\"\""
param **.sink_129.app[0].localPort 1100
param **.sink_129.app[0].replyDelay 0s
param **.sink_130.numApps 1
param **.sink_130.app[0].typename "\"TcpGenericServerApp\""
param **.sink_130.app[0].localAddress "\"\""
param **.sink_130.app[0].localPort 1100
param **.sink_130.app[0].replyDelay 0s
param **.sink_131.numApps 1
param **.sink_131.app[0].typename "\"TcpGenericServerApp\""
param **.sink_131.app[0].localAddress "\"\""
param **.sink_131.app[0].localPort 1100
param **.sink_131.app[0].replyDelay 0s
param **.sink_132.numApps 1
param **.sink_132.app[0].typename "\"TcpGenericServerApp\""
param **.sink_132.app[0].localAddress "\"\""
param **.sink_132.app[0].localPort 1100
param **.sink_132.app[0].replyDelay 0s
param **.sink_133.numApps 1
param **.sink_133.app[0].typename "\"TcpGenericServerApp\""
param **.sink_133.app[0].localAddress "\"\""
param **.sink_133.app[0].localPort 1100
param **.sink_133.app[0].replyDelay 0s
param **.sink_134.numApps 1
param **.sink_134.app[0].typename "\"TcpGenericServerApp\""
param **.sink_134.app[0].localAddress "\"\""
param **.sink_134.app[0].localPort 1100
param **.sink_134.app[0].replyDelay 0s
param **.sink_135.numApps 1
param **.sink_135.app[0].typename "\"TcpGenericServerApp\""
param **.sink_135.app[0].localAddress "\"\""
param **.sink_135.app[0].localPort 1100
param **.sink_135.app[0].replyDelay 0s
param **.sink_136.numApps 1
param **.sink_136.app[0].typename "\"TcpGenericServerApp\""
param **.sink_136.app[0].localAddress "\"\""
param **.sink_136.app[0].localPort 1100
param **.sink_136.app[0].replyDelay 0s
param **.sink_137.numApps 1
param **.sink_137.app[0].typename "\"TcpGenericServerApp\""
param **.sink_137.app[0].localAddress "\"\""
param **.sink_137.app[0].localPort 1100
param **.sink_137.app[0].replyDelay 0s
param **.sink_138.numApps 1
param **.sink_138.app[0].typename "\"TcpGenericServerApp\""
param **.sink_138.app[0].localAddress "\"\""
param **.sink_138.app[0].localPort 1100
param **.sink_138.app[0].replyDelay 0s
param **.sink_139.numApps 1
param **.sink_139.app[0].typename "\"TcpGenericServerApp\""
param **.sink_139.app[0].localAddress "\"\""
param **.sink_139.app[0].localPort 1100
param **.sink_139.app[0].replyDelay 0s
param **.sink_140.numApps 1
param **.sink_140.app[0].typename "\"TcpGenericServerApp\""
param **.sink_140.app[0].localAddress "\"\""
param **.sink_140.app[0].localPort 1100
param **.sink_140.app[0].replyDelay 0s
param **.sink_141.numApps 1
param **.sink_141.app[0].typename "\"TcpGenericServerApp\""
param **.sink_141.app[0].localAddress "\"\""
param **.sink_141.app[0].localPort 1100
param **.sink_141.app[0].replyDelay 0s
param **.sink_142.numApps 1
param **.sink_142.app[0].typename "\"TcpGenericServerApp\""
param **.sink_142.app[0].localAddress "\"\""
param **.sink_142.app[0].localPort 1100
param **.sink_142.app[0].replyDelay 0s
param **.sink_143.numApps 1
param **.sink_143.app[0].typename "\"TcpGenericServerApp\""
param **.sink_143.app[0].localAddress "\"\""
param **.sink_143.app[0].localPort 1100
param **.sink_143.app[0].replyDelay 0s
param **.sink_144.numApps 1
param **.sink_144.app[0].typename "\"TcpGenericServerApp\""
param **.sink_144.app[0].localAddress "\"\""
param **.sink_144.app[0].localPort 1100
param **.sink_144.app[0].replyDelay 0s
param **.sink_145.numApps 1
param **.sink_145.app[0].typename "\"TcpGenericServerApp\""
param **.sink_145.app[0].localAddress "\"\""
param **.sink_145.app[0].localPort 1100
param **.sink_145.app[0].replyDelay 0s
param **.sink_146.numApps 1
param **.sink_146.app[0].typename "\"TcpGenericServerApp\""
param **.sink_146.app[0].localAddress "\"\""
param **.sink_146.app[0].localPort 1100
param **.sink_146.app[0].replyDelay 0s
param **.sink_147.numApps 1
param **.sink_147.app[0].typename "\"TcpGenericServerApp\""
param **.sink_147.app[0].localAddress "\"\""
param **.sink_147.app[0].localPort 1100
param **.sink_147.app[0].replyDelay 0s
param **.sink_148.numApps 1
param **.sink_148.app[0].typename "\"TcpGenericServerApp\""
param **.sink_148.app[0].localAddress "\"\""
param **.sink_148.app[0].localPort 1100
param **.sink_148.app[0].replyDelay 0s
param **.sink_149.numApps 1
param **.sink_149.app[0].typename "\"TcpGenericServerApp\""
param **.sink_149.app[0].localAddress "\"\""
param **.sink_149.app[0].localPort 1100
param **.sink_149.app[0].replyDelay 0s
param **.sink_150.numApps 1
param **.sink_150.app[0].typename "\"TcpGenericServerApp\""
param **.sink_150.app[0].localAddress "\"\""
param **.sink_150.app[0].localPort 1100
param **.sink_150.app[0].replyDelay 0s
param **.sink_151.numApps 1
param **.sink_151.app[0].typename "\"TcpGenericServerApp\""
param **.sink_151.app[0].localAddress "\"\""
param **.sink_151.app[0].localPort 1100
param **.sink_151.app[0].replyDelay 0s
param **.sink_152.numApps 1
param **.sink_152.app[0].typename "\"TcpGenericServerApp\""
param **.sink_152.app[0].localAddress "\"\""
param **.sink_152.app[0].localPort 1100
param **.sink_152.app[0].replyDelay 0s
param **.sink_153.numApps 1
param **.sink_153.app[0].typename "\"TcpGenericServerApp\""
param **.sink_153.app[0].localAddress "\"\""
param **.sink_153.app[0].localPort 1100
param **.sink_153.app[0].replyDelay 0s
param **.sink_154.numApps 1
param **.sink_154.app[0].typename "\"TcpGenericServerApp\""
param **.sink_154.app[0].localAddress "\"\""
param **.sink_154.app[0].localPort 1100
param **.sink_154.app[0].replyDelay 0s
param **.sink_155.numApps 1
param **.sink_155.app[0].typename "\"TcpGenericServerApp\""
param **.sink_155.app[0].localAddress "\"\""
param **.sink_155.app[0].localPort 1100
param **.sink_155.app[0].replyDelay 0s
param **.sink_156.numApps 1
param **.sink_156.app[0].typename "\"TcpGenericServerApp\""
param **.sink_156.app[0].localAddress "\"\""
param **.sink_156.app[0].localPort 1100
param **.sink_156.app[0].replyDelay 0s
param **.sink_157.numApps 1
param **.sink_157.app[0].typename "\"TcpGenericServerApp\""
param **.sink_157.app[0].localAddress "\"\""
param **.sink_157.app[0].localPort 1100
param **.sink_157.app[0].replyDelay 0s
param **.sink_158.numApps 1
param **.sink_158.app[0].typename "\"TcpGenericServerApp\""
param **.sink_158.app[0].localAddress "\"\""
param **.sink_158.app[0].localPort 1100
param **.sink_158.app[0].replyDelay 0s
param **.sink_159.numApps 1
param **.sink_159.app[0].typename "\"TcpGenericServerApp\""
param **.sink_159.app[0].localAddress "\"\""
param **.sink_159.app[0].localPort 1100
param **.sink_159.app[0].replyDelay 0s
param **.sink_160.numApps 1
param **.sink_160.app[0].typename "\"TcpGenericServerApp\""
param **.sink_160.app[0].localAddress "\"\""
param **.sink_160.app[0].localPort 1100
param **.sink_160.app[0].replyDelay 0s
param **.sink_161.numApps 1
param **.sink_161.app[0].typename "\"TcpGenericServerApp\""
param **.sink_161.app[0].localAddress "\"\""
param **.sink_161.app[0].localPort 1100
param **.sink_161.app[0].replyDelay 0s
param **.sink_162.numApps 1
param **.sink_162.app[0].typename "\"TcpGenericServerApp\""
param **.sink_162.app[0].localAddress "\"\""
param **.sink_162.app[0].localPort 1100
param **.sink_162.app[0].replyDelay 0s
param **.sink_163.numApps 1
param **.sink_163.app[0].typename "\"TcpGenericServerApp\""
param **.sink_163.app[0].localAddress "\"\""
param **.sink_163.app[0].localPort 1100
param **.sink_163.app[0].replyDelay 0s
param **.sink_164.numApps 1
param **.sink_164.app[0].typename "\"TcpGenericServerApp\""
param **.sink_164.app[0].localAddress "\"\""
param **.sink_164.app[0].localPort 1100
param **.sink_164.app[0].replyDelay 0s
param **.sink_165.numApps 1
param **.sink_165.app[0].typename "\"TcpGenericServerApp\""
param **.sink_165.app[0].localAddress "\"\""
param **.sink_165.app[0].localPort 1100
param **.sink_165.app[0].replyDelay 0s
param **.sink_166.numApps 1
param **.sink_166.app[0].typename "\"TcpGenericServerApp\""
param **.sink_166.app[0].localAddress "\"\""
param **.sink_166.app[0].localPort 1100
param **.sink_166.app[0].replyDelay 0s
param **.sink_167.numApps 1
param **.sink_167.app[0].typename "\"TcpGenericServerApp\""
param **.sink_167.app[0].localAddress "\"\""
param **.sink_167.app[0].localPort 1100
param **.sink_167.app[0].replyDelay 0s
param **.sink_168.numApps 1
param **.sink_168.app[0].typename "\"TcpGenericServerApp\""
param **.sink_168.app[0].localAddress "\"\""
param **.sink_168.app[0].localPort 1100
param **.sink_168.app[0].replyDelay 0s
param **.sink_169.numApps 1
param **.sink_169.app[0].typename "\"TcpGenericServerApp\""
param **.sink_169.app[0].localAddress "\"\""
param **.sink_169.app[0].localPort 1100
param **.sink_169.app[0].replyDelay 0s
param **.sink_170.numApps 1
param **.sink_170.app[0].typename "\"TcpGenericServerApp\""
param **.sink_170.app[0].localAddress "\"\""
param **.sink_170.app[0].localPort 1100
param **.sink_170.app[0].replyDelay 0s
param **.sink_171.numApps 1
param **.sink_171.app[0].typename "\"TcpGenericServerApp\""
param **.sink_171.app[0].localAddress "\"\""
param **.sink_171.app[0].localPort 1100
param **.sink_171.app[0].replyDelay 0s
param **.sink_172.numApps 1
param **.sink_172.app[0].typename "\"TcpGenericServerApp\""
param **.sink_172.app[0].localAddress "\"\""
param **.sink_172.app[0].localPort 1100
param **.sink_172.app[0].replyDelay 0s
param **.sink_173.numApps 1
param **.sink_173.app[0].typename "\"TcpGenericServerApp\""
param **.sink_173.app[0].localAddress "\"\""
param **.sink_173.app[0].localPort 1100
param **.sink_173.app[0].replyDelay 0s
param **.sink_174.numApps 1
param **.sink_174.app[0].typename "\"TcpGenericServerApp\""
param **.sink_174.app[0].localAddress "\"\""
param **.sink_174.app[0].localPort 1100
param **.sink_174.app[0].replyDelay 0s
param **.sink_175.numApps 1
param **.sink_175.app[0].typename "\"TcpGenericServerApp\""
param **.sink_175.app[0].localAddress "\"\""
param **.sink_175.app[0].localPort 1100
param **.sink_175.app[0].replyDelay 0s
param **.sink_176.numApps 1
param **.sink_176.app[0].typename "\"TcpGenericServerApp\""
param **.sink_176.app[0].localAddress "\"\""
param **.sink_176.app[0].localPort 1100
param **.sink_176.app[0].replyDelay 0s
param **.sink_177.numApps 1
param **.sink_177.app[0].typename "\"TcpGenericServerApp\""
param **.sink_177.app[0].localAddress "\"\""
param **.sink_177.app[0].localPort 1100
param **.sink_177.app[0].replyDelay 0s
param **.sink_178.numApps 1
param **.sink_178.app[0].typename "\"TcpGenericServerApp\""
param **.sink_178.app[0].localAddress "\"\""
param **.sink_178.app[0].localPort 1100
param **.sink_178.app[0].replyDelay 0s
param **.sink_179.numApps 1
param **.sink_179.app[0].typename "\"TcpGenericServerApp\""
param **.sink_179.app[0].localAddress "\"\""
param **.sink_179.app[0].localPort 1100
param **.sink_179.app[0].replyDelay 0s
param **.sink_180.numApps 1
param **.sink_180.app[0].typename "\"TcpGenericServerApp\""
param **.sink_180.app[0].localAddress "\"\""
param **.sink_180.app[0].localPort 1100
param **.sink_180.app[0].replyDelay 0s
param **.sink_181.numApps 1
param **.sink_181.app[0].typename "\"TcpGenericServerApp\""
param **.sink_181.app[0].localAddress "\"\""
param **.sink_181.app[0].localPort 1100
param **.sink_181.app[0].replyDelay 0s
param **.sink_182.numApps 1
param **.sink_182.app[0].typename "\"TcpGenericServerApp\""
param **.sink_182.app[0].localAddress "\"\""
param **.sink_182.app[0].localPort 1100
param **.sink_182.app[0].replyDelay 0s
param **.sink_183.numApps 1
param **.sink_183.app[0].typename "\"TcpGenericServerApp\""
param **.sink_183.app[0].localAddress "\"\""
param **.sink_183.app[0].localPort 1100
param **.sink_183.app[0].replyDelay 0s
param **.sink_184.numApps 1
param **.sink_184.app[0].typename "\"TcpGenericServerApp\""
param **.sink_184.app[0].localAddress "\"\""
param **.sink_184.app[0].localPort 1100
param **.sink_184.app[0].replyDelay 0s
param **.sink_185.numApps 1
param **.sink_185.app[0].typename "\"TcpGenericServerApp\""
param **.sink_185.app[0].localAddress "\"\""
param **.sink_185.app[0].localPort 1100
param **.sink_185.app[0].replyDelay 0s
param **.sink_186.numApps 1
param **.sink_186.app[0].typename "\"TcpGenericServerApp\""
param **.sink_186.app[0].localAddress "\"\""
param **.sink_186.app[0].localPort 1100
param **.sink_186.app[0].replyDelay 0s
param **.sink_187.numApps 1
param **.sink_187.app[0].typename "\"TcpGenericServerApp\""
param **.sink_187.app[0].localAddress "\"\""
param **.sink_187.app[0].localPort 1100
param **.sink_187.app[0].replyDelay 0s
param **.sink_188.numApps 1
param **.sink_188.app[0].typename "\"TcpGenericServerApp\""
param **.sink_188.app[0].localAddress "\"\""
param **.sink_188.app[0].localPort 1100
param **.sink_188.app[0].replyDelay 0s
param **.sink_189.numApps 1
param **.sink_189.app[0].typename "\"TcpGenericServerApp\""
param **.sink_189.app[0].localAddress "\"\""
param **.sink_189.app[0].localPort 1100
param **.sink_189.app[0].replyDelay 0s
param **.sink_190.numApps 1
param **.sink_190.app[0].typename "\"TcpGenericServerApp\""
param **.sink_190.app[0].localAddress "\"\""
param **.sink_190.app[0].localPort 1100
param **.sink_190.app[0].replyDelay 0s
param **.sink_191.numApps 1
param **.sink_191.app[0].typename "\"TcpGenericServerApp\""
param **.sink_191.app[0].localAddress "\"\""
param **.sink_191.app[0].localPort 1100
param **.sink_191.app[0].replyDelay 0s
param **.sink_192.numApps 1
param **.sink_192.app[0].typename "\"TcpGenericServerApp\""
param **.sink_192.app[0].localAddress "\"\""
param **.sink_192.app[0].localPort 1100
param **.sink_192.app[0].replyDelay 0s
param **.sink_193.numApps 1
param **.sink_193.app[0].typename "\"TcpGenericServerApp\""
param **.sink_193.app[0].localAddress "\"\""
param **.sink_193.app[0].localPort 1100
param **.sink_193.app[0].replyDelay 0s
param **.sink_194.numApps 1
param **.sink_194.app[0].typename "\"TcpGenericServerApp\""
param **.sink_194.app[0].localAddress "\"\""
param **.sink_194.app[0].localPort 1100
param **.sink_194.app[0].replyDelay 0s
param **.sink_195.numApps 1
param **.sink_195.app[0].typename "\"TcpGenericServerApp\""
param **.sink_195.app[0].localAddress "\"\""
param **.sink_195.app[0].localPort 1100
param **.sink_195.app[0].replyDelay 0s
param **.sink_196.numApps 1
param **.sink_196.app[0].typename "\"TcpGenericServerApp\""
param **.sink_196.app[0].localAddress "\"\""
param **.sink_196.app[0].localPort 1100
param **.sink_196.app[0].replyDelay 0s
param **.sink_197.numApps 1
param **.sink_197.app[0].typename "\"TcpGenericServerApp\""
param **.sink_197.app[0].localAddress "\"\""
param **.sink_197.app[0].localPort 1100
param **.sink_197.app[0].replyDelay 0s
param **.sink_198.numApps 1
param **.sink_198.app[0].typename "\"TcpGenericServerApp\""
param **.sink_198.app[0].localAddress "\"\""
param **.sink_198.app[0].localPort 1100
param **.sink_198.app[0].replyDelay 0s
param **.sink_199.numApps 1
param **.sink_199.app[0].typename "\"TcpGenericServerApp\""
param **.sink_199.app[0].localAddress "\"\""
param **.sink_199.app[0].localPort 1100
param **.sink_199.app[0].replyDelay 0s
param **.sink_200.numApps 1
param **.sink_200.app[0].typename "\"TcpGenericServerApp\""
param **.sink_200.app[0].localAddress "\"\""
param **.sink_200.app[0].localPort 1100
param **.sink_200.app[0].replyDelay 0s
param **.sink_201.numApps 1
param **.sink_201.app[0].typename "\"TcpGenericServerApp\""
param **.sink_201.app[0].localAddress "\"\""
param **.sink_201.app[0].localPort 1100
param **.sink_201.app[0].replyDelay 0s
param **.sink_202.numApps 1
param **.sink_202.app[0].typename "\"TcpGenericServerApp\""
param **.sink_202.app[0].localAddress "\"\""
param **.sink_202.app[0].localPort 1100
param **.sink_202.app[0].replyDelay 0s
param **.sink_203.numApps 1
param **.sink_203.app[0].typename "\"TcpGenericServerApp\""
param **.sink_203.app[0].localAddress "\"\""
param **.sink_203.app[0].localPort 1100
param **.sink_203.app[0].replyDelay 0s
param **.sink_204.numApps 1
param **.sink_204.app[0].typename "\"TcpGenericServerApp\""
param **.sink_204.app[0].localAddress "\"\""
param **.sink_204.app[0].localPort 1100
param **.sink_204.app[0].replyDelay 0s
param **.sink_205.numApps 1
param **.sink_205.app[0].typename "\"TcpGenericServerApp\""
param **.sink_205.app[0].localAddress "\"\""
param **.sink_205.app[0].localPort 1100
param **.sink_205.app[0].replyDelay 0s
param **.sink_206.numApps 1
param **.sink_206.app[0].typename "\"TcpGenericServerApp\""
param **.sink_206.app[0].localAddress "\"\""
param **.sink_206.app[0].localPort 1100
param **.sink_206.app[0].replyDelay 0s
param **.sink_207.numApps 1
param **.sink_207.app[0].typename "\"TcpGenericServerApp\""
param **.sink_207.app[0].localAddress "\"\""
param **.sink_207.app[0].localPort 1100
param **.sink_207.app[0].replyDelay 0s
param **.sink_208.numApps 1
param **.sink_208.app[0].typename "\"TcpGenericServerApp\""
param **.sink_208.app[0].localAddress "\"\""
param **.sink_208.app[0].localPort 1100
param **.sink_208.app[0].replyDelay 0s
param **.sink_209.numApps 1
param **.sink_209.app[0].typename "\"TcpGenericServerApp\""
param **.sink_209.app[0].localAddress "\"\""
param **.sink_209.app[0].localPort 1100
param **.sink_209.app[0].replyDelay 0s
param **.sink_210.numApps 1
param **.sink_210.app[0].typename "\"TcpGenericServerApp\""
param **.sink_210.app[0].localAddress "\"\""
param **.sink_210.app[0].localPort 1100
param **.sink_210.app[0].replyDelay 0s
param **.sink_211.numApps 1
param **.sink_211.app[0].typename "\"TcpGenericServerApp\""
param **.sink_211.app[0].localAddress "\"\""
param **.sink_211.app[0].localPort 1100
param **.sink_211.app[0].replyDelay 0s
param **.sink_212.numApps 1
param **.sink_212.app[0].typename "\"TcpGenericServerApp\""
param **.sink_212.app[0].localAddress "\"\""
param **.sink_212.app[0].localPort 1100
param **.sink_212.app[0].replyDelay 0s
param **.sink_213.numApps 1
param **.sink_213.app[0].typename "\"TcpGenericServerApp\""
param **.sink_213.app[0].localAddress "\"\""
param **.sink_213.app[0].localPort 1100
param **.sink_213.app[0].replyDelay 0s
param **.sink_214.numApps 1
param **.sink_214.app[0].typename "\"TcpGenericServerApp\""
param **.sink_214.app[0].localAddress "\"\""
param **.sink_214.app[0].localPort 1100
param **.sink_214.app[0].replyDelay 0s
param **.sink_215.numApps 1
param **.sink_215.app[0].typename "\"TcpGenericServerApp\""
param **.sink_215.app[0].localAddress "\"\""
param **.sink_215.app[0].localPort 1100
param **.sink_215.app[0].replyDelay 0s
param **.sink_216.numApps 1
param **.sink_216.app[0].typename "\"TcpGenericServerApp\""
param **.sink_216.app[0].localAddress "\"\""
param **.sink_216.app[0].localPort 1100
param **.sink_216.app[0].replyDelay 0s
param **.sink_217.numApps 1
param **.sink_217.app[0].typename "\"TcpGenericServerApp\""
param **.sink_217.app[0].localAddress "\"\""
param **.sink_217.app[0].localPort 1100
param **.sink_217.app[0].replyDelay 0s
param **.sink_218.numApps 1
param **.sink_218.app[0].typename "\"TcpGenericServerApp\""
param **.sink_218.app[0].localAddress "\"\""
param **.sink_218.app[0].localPort 1100
param **.sink_218.app[0].replyDelay 0s
param **.sink_219.numApps 1
param **.sink_219.app[0].typename "\"TcpGenericServerApp\""
param **.sink_219.app[0].localAddress "\"\""
param **.sink_219.app[0].localPort 1100
param **.sink_219.app[0].replyDelay 0s
param **.sink_220.numApps 1
param **.sink_220.app[0].typename "\"TcpGenericServerApp\""
param **.sink_220.app[0].localAddress "\"\""
param **.sink_220.app[0].localPort 1100
param **.sink_220.app[0].replyDelay 0s
param **.sink_221.numApps 1
param **.sink_221.app[0].typename "\"TcpGenericServerApp\""
param **.sink_221.app[0].localAddress "\"\""
param **.sink_221.app[0].localPort 1100
param **.sink_221.app[0].replyDelay 0s
param **.sink_222.numApps 1
param **.sink_222.app[0].typename "\"TcpGenericServerApp\""
param **.sink_222.app[0].localAddress "\"\""
param **.sink_222.app[0].localPort 1100
param **.sink_222.app[0].replyDelay 0s
param **.sink_223.numApps 1
param **.sink_223.app[0].typename "\"TcpGenericServerApp\""
param **.sink_223.app[0].localAddress "\"\""
param **.sink_223.app[0].localPort 1100
param **.sink_223.app[0].replyDelay 0s
param **.sink_224.numApps 1
param **.sink_224.app[0].typename "\"TcpGenericServerApp\""
param **.sink_224.app[0].localAddress "\"\""
param **.sink_224.app[0].localPort 1100
param **.sink_224.app[0].replyDelay 0s
param **.sink_225.numApps 1
param **.sink_225.app[0].typename "\"TcpGenericServerApp\""
param **.sink_225.app[0].localAddress "\"\""
param **.sink_225.app[0].localPort 1100
param **.sink_225.app[0].replyDelay 0s
param **.sink_226.numApps 1
param **.sink_226.app[0].typename "\"TcpGenericServerApp\""
param **.sink_226.app[0].localAddress "\"\""
param **.sink_226.app[0].localPort 1100
param **.sink_226.app[0].replyDelay 0s
param **.sink_227.numApps 1
param **.sink_227.app[0].typename "\"TcpGenericServerApp\""
param **.sink_227.app[0].localAddress "\"\""
param **.sink_227.app[0].localPort 1100
param **.sink_227.app[0].replyDelay 0s
param **.sink_228.numApps 1
param **.sink_228.app[0].typename "\"TcpGenericServerApp\""
param **.sink_228.app[0].localAddress "\"\""
param **.sink_228.app[0].localPort 1100
param **.sink_228.app[0].replyDelay 0s
param **.sink_229.numApps 1
param **.sink_229.app[0].typename "\"TcpGenericServerApp\""
param **.sink_229.app[0].localAddress "\"\""
param **.sink_229.app[0].localPort 1100
param **.sink_229.app[0].replyDelay 0s
param **.sink_230.numApps 1
param **.sink_230.app[0].typename "\"TcpGenericServerApp\""
param **.sink_230.app[0].localAddress "\"\""
param **.sink_230.app[0].localPort 1100
param **.sink_230.app[0].replyDelay 0s
param **.sink_231.numApps 1
param **.sink_231.app[0].typename "\"TcpGenericServerApp\""
param **.sink_231.app[0].localAddress "\"\""
param **.sink_231.app[0].localPort 1100
param **.sink_231.app[0].replyDelay 0s
param **.sink_232.numApps 1
param **.sink_232.app[0].typename "\"TcpGenericServerApp\""
param **.sink_232.app[0].localAddress "\"\""
param **.sink_232.app[0].localPort 1100
param **.sink_232.app[0].replyDelay 0s
param **.sink_233.numApps 1
param **.sink_233.app[0].typename "\"TcpGenericServerApp\""
param **.sink_233.app[0].localAddress "\"\""
param **.sink_233.app[0].localPort 1100
param **.sink_233.app[0].replyDelay 0s
param **.sink_234.numApps 1
param **.sink_234.app[0].typename "\"TcpGenericServerApp\""
param **.sink_234.app[0].localAddress "\"\""
param **.sink_234.app[0].localPort 1100
param **.sink_234.app[0].replyDelay 0s
param **.sink_235.numApps 1
param **.sink_235.app[0].typename "\"TcpGenericServerApp\""
param **.sink_235.app[0].localAddress "\"\""
param **.sink_235.app[0].localPort 1100
param **.sink_235.app[0].replyDelay 0s
param **.sink_236.numApps 1
param **.sink_236.app[0].typename "\"TcpGenericServerApp\""
param **.sink_236.app[0].localAddress "\"\""
param **.sink_236.app[0].localPort 1100
param **.sink_236.app[0].replyDelay 0s
param **.sink_237.numApps 1
param **.sink_237.app[0].typename "\"TcpGenericServerApp\""
param **.sink_237.app[0].localAddress "\"\""
param **.sink_237.app[0].localPort 1100
param **.sink_237.app[0].replyDelay 0s
param **.sink_238.numApps 1
param **.sink_238.app[0].typename "\"TcpGenericServerApp\""
param **.sink_238.app[0].localAddress "\"\""
param **.sink_238.app[0].localPort 1100
param **.sink_238.app[0].replyDelay 0s
param **.sink_239.numApps 1
param **.sink_239.app[0].typename "\"TcpGenericServerApp\""
param **.sink_239.app[0].localAddress "\"\""
param **.sink_239.app[0].localPort 1100
param **.sink_239.app[0].replyDelay 0s
param **.sink_240.numApps 1
param **.sink_240.app[0].typename "\"TcpGenericServerApp\""
param **.sink_240.app[0].localAddress "\"\""
param **.sink_240.app[0].localPort 1100
param **.sink_240.app[0].replyDelay 0s
param **.sink_241.numApps 1
param **.sink_241.app[0].typename "\"TcpGenericServerApp\""
param **.sink_241.app[0].localAddress "\"\""
param **.sink_241.app[0].localPort 1100
param **.sink_241.app[0].replyDelay 0s
param **.sink_242.numApps 1
param **.sink_242.app[0].typename "\"TcpGenericServerApp\""
param **.sink_242.app[0].localAddress "\"\""
param **.sink_242.app[0].localPort 1100
param **.sink_242.app[0].replyDelay 0s
param **.sink_243.numApps 1
param **.sink_243.app[0].typename "\"TcpGenericServerApp\""
param **.sink_243.app[0].localAddress "\"\""
param **.sink_243.app[0].localPort 1100
param **.sink_243.app[0].replyDelay 0s
param **.sink_244.numApps 1
param **.sink_244.app[0].typename "\"TcpGenericServerApp\""
param **.sink_244.app[0].localAddress "\"\""
param **.sink_244.app[0].localPort 1100
param **.sink_244.app[0].replyDelay 0s
param **.sink_245.numApps 1
param **.sink_245.app[0].typename "\"TcpGenericServerApp\""
param **.sink_245.app[0].localAddress "\"\""
param **.sink_245.app[0].localPort 1100
param **.sink_245.app[0].replyDelay 0s
param **.sink_246.numApps 1
param **.sink_246.app[0].typename "\"TcpGenericServerApp\""
param **.sink_246.app[0].localAddress "\"\""
param **.sink_246.app[0].localPort 1100
param **.sink_246.app[0].replyDelay 0s
param **.sink_247.numApps 1
param **.sink_247.app[0].typename "\"TcpGenericServerApp\""
param **.sink_247.app[0].localAddress "\"\""
param **.sink_247.app[0].localPort 1100
param **.sink_247.app[0].replyDelay 0s
param **.sink_248.numApps 1
param **.sink_248.app[0].typename "\"TcpGenericServerApp\""
param **.sink_248.app[0].localAddress "\"\""
param **.sink_248.app[0].localPort 1100
param **.sink_248.app[0].replyDelay 0s
param **.sink_249.numApps 1
param **.sink_249.app[0].typename "\"TcpGenericServerApp\""
param **.sink_249.app[0].localAddress "\"\""
param **.sink_249.app[0].localPort 1100
param **.sink_249.app[0].replyDelay 0s
param **.sink_250.numApps 1
param **.sink_250.app[0].typename "\"TcpGenericServerApp\""
param **.sink_250.app[0].localAddress "\"\""
param **.sink_250.app[0].localPort 1100
param **.sink_250.app[0].replyDelay 0s
param **.sink_251.numApps 1
param **.sink_251.app[0].typename "\"TcpGenericServerApp\""
param **.sink_251.app[0].localAddress "\"\""
param **.sink_251.app[0].localPort 1100
param **.sink_251.app[0].replyDelay 0s
param **.sink_252.numApps 1
param **.sink_252.app[0].typename "\"TcpGenericServerApp\""
param **.sink_252.app[0].localAddress "\"\""
param **.sink_252.app[0].localPort 1100
param **.sink_252.app[0].replyDelay 0s
param **.sink_253.numApps 1
param **.sink_253.app[0].typename "\"TcpGenericServerApp\""
param **.sink_253.app[0].localAddress "\"\""
param **.sink_253.app[0].localPort 1100
param **.sink_253.app[0].replyDelay 0s
param **.sink_254.numApps 1
param **.sink_254.app[0].typename "\"TcpGenericServerApp\""
param **.sink_254.app[0].localAddress "\"\""
param **.sink_254.app[0].localPort 1100
param **.sink_254.app[0].replyDelay 0s
param **.sink_255.numApps 1
param **.sink_255.app[0].typename "\"TcpGenericServerApp\""
param **.sink_255.app[0].localAddress "\"\""
param **.sink_255.app[0].localPort 1100
param **.sink_255.app[0].replyDelay 0s
param **.sink_256.numApps 1
param **.sink_256.app[0].typename "\"TcpGenericServerApp\""
param **.sink_256.app[0].localAddress "\"\""
param **.sink_256.app[0].localPort 1100
param **.sink_256.app[0].replyDelay 0s
param **.sink_257.numApps 1
param **.sink_257.app[0].typename "\"TcpGenericServerApp\""
param **.sink_257.app[0].localAddress "\"\""
param **.sink_257.app[0].localPort 1100
param **.sink_257.app[0].replyDelay 0s
param **.sink_258.numApps 1
param **.sink_258.app[0].typename "\"TcpGenericServerApp\""
param **.sink_258.app[0].localAddress "\"\""
param **.sink_258.app[0].localPort 1100
param **.sink_258.app[0].replyDelay 0s
param **.sink_259.numApps 1
param **.sink_259.app[0].typename "\"TcpGenericServerApp\""
param **.sink_259.app[0].localAddress "\"\""
param **.sink_259.app[0].localPort 1100
param **.sink_259.app[0].replyDelay 0s
param **.sink_260.numApps 1
param **.sink_260.app[0].typename "\"TcpGenericServerApp\""
param **.sink_260.app[0].localAddress "\"\""
param **.sink_260.app[0].localPort 1100
param **.sink_260.app[0].replyDelay 0s
param **.sink_261.numApps 1
param **.sink_261.app[0].typename "\"TcpGenericServerApp\""
param **.sink_261.app[0].localAddress "\"\""
param **.sink_261.app[0].localPort 1100
param **.sink_261.app[0].replyDelay 0s
param **.sink_262.numApps 1
param **.sink_262.app[0].typename "\"TcpGenericServerApp\""
param **.sink_262.app[0].localAddress "\"\""
param **.sink_262.app[0].localPort 1100
param **.sink_262.app[0].replyDelay 0s
param **.sink_263.numApps 1
param **.sink_263.app[0].typename "\"TcpGenericServerApp\""
param **.sink_263.app[0].localAddress "\"\""
param **.sink_263.app[0].localPort 1100
param **.sink_263.app[0].replyDelay 0s
param **.sink_264.numApps 1
param **.sink_264.app[0].typename "\"TcpGenericServerApp\""
param **.sink_264.app[0].localAddress "\"\""
param **.sink_264.app[0].localPort 1100
param **.sink_264.app[0].replyDelay 0s
param **.sink_265.numApps 1
param **.sink_265.app[0].typename "\"TcpGenericServerApp\""
param **.sink_265.app[0].localAddress "\"\""
param **.sink_265.app[0].localPort 1100
param **.sink_265.app[0].replyDelay 0s
param **.sink_266.numApps 1
param **.sink_266.app[0].typename "\"TcpGenericServerApp\""
param **.sink_266.app[0].localAddress "\"\""
param **.sink_266.app[0].localPort 1100
param **.sink_266.app[0].replyDelay 0s
param **.sink_267.numApps 1
param **.sink_267.app[0].typename "\"TcpGenericServerApp\""
param **.sink_267.app[0].localAddress "\"\""
param **.sink_267.app[0].localPort 1100
param **.sink_267.app[0].replyDelay 0s
param **.sink_268.numApps 1
param **.sink_268.app[0].typename "\"TcpGenericServerApp\""
param **.sink_268.app[0].localAddress "\"\""
param **.sink_268.app[0].localPort 1100
param **.sink_268.app[0].replyDelay 0s
param **.sink_269.numApps 1
param **.sink_269.app[0].typename "\"TcpGenericServerApp\""
param **.sink_269.app[0].localAddress "\"\""
param **.sink_269.app[0].localPort 1100
param **.sink_269.app[0].replyDelay 0s
param **.sink_270.numApps 1
param **.sink_270.app[0].typename "\"TcpGenericServerApp\""
param **.sink_270.app[0].localAddress "\"\""
param **.sink_270.app[0].localPort 1100
param **.sink_270.app[0].replyDelay 0s
param **.sink_271.numApps 1
param **.sink_271.app[0].typename "\"TcpGenericServerApp\""
param **.sink_271.app[0].localAddress "\"\""
param **.sink_271.app[0].localPort 1100
param **.sink_271.app[0].replyDelay 0s
param **.sink_272.numApps 1
param **.sink_272.app[0].typename "\"TcpGenericServerApp\""
param **.sink_272.app[0].localAddress "\"\""
param **.sink_272.app[0].localPort 1100
param **.sink_272.app[0].replyDelay 0s
param **.sink_273.numApps 1
param **.sink_273.app[0].typename "\"TcpGenericServerApp\""
param **.sink_273.app[0].localAddress "\"\""
param **.sink_273.app[0].localPort 1100
param **.sink_273.app[0].replyDelay 0s
param **.sink_274.numApps 1
param **.sink_274.app[0].typename "\"TcpGenericServerApp\""
param **.sink_274.app[0].localAddress "\"\""
param **.sink_274.app[0].localPort 1100
param **.sink_274.app[0].replyDelay 0s
param **.sink_275.numApps 1
param **.sink_275.app[0].typename "\"TcpGenericServerApp\""
param **.sink_275.app[0].localAddress "\"\""
param **.sink_275.app[0].localPort 1100
param **.sink_275.app[0].replyDelay 0s
param **.sink_276.numApps 1
param **.sink_276.app[0].typename "\"TcpGenericServerApp\""
param **.sink_276.app[0].localAddress "\"\""
param **.sink_276.app[0].localPort 1100
param **.sink_276.app[0].replyDelay 0s
param **.sink_277.numApps 1
param **.sink_277.app[0].typename "\"TcpGenericServerApp\""
param **.sink_277.app[0].localAddress "\"\""
param **.sink_277.app[0].localPort 1100
param **.sink_277.app[0].replyDelay 0s
param **.sink_278.numApps 1
param **.sink_278.app[0].typename "\"TcpGenericServerApp\""
param **.sink_278.app[0].localAddress "\"\""
param **.sink_278.app[0].localPort 1100
param **.sink_278.app[0].replyDelay 0s
param **.sink_279.numApps 1
param **.sink_279.app[0].typename "\"TcpGenericServerApp\""
param **.sink_279.app[0].localAddress "\"\""
param **.sink_279.app[0].localPort 1100
param **.sink_279.app[0].replyDelay 0s
param **.sink_280.numApps 1
param **.sink_280.app[0].typename "\"TcpGenericServerApp\""
param **.sink_280.app[0].localAddress "\"\""
param **.sink_280.app[0].localPort 1100
param **.sink_280.app[0].replyDelay 0s
param **.sink_281.numApps 1
param **.sink_281.app[0].typename "\"TcpGenericServerApp\""
param **.sink_281.app[0].localAddress "\"\""
param **.sink_281.app[0].localPort 1100
param **.sink_281.app[0].replyDelay 0s
param **.sink_282.numApps 1
param **.sink_282.app[0].typename "\"TcpGenericServerApp\""
param **.sink_282.app[0].localAddress "\"\""
param **.sink_282.app[0].localPort 1100
param **.sink_282.app[0].replyDelay 0s
param **.sink_283.numApps 1
param **.sink_283.app[0].typename "\"TcpGenericServerApp\""
param **.sink_283.app[0].localAddress "\"\""
param **.sink_283.app[0].localPort 1100
param **.sink_283.app[0].replyDelay 0s
param **.sink_284.numApps 1
param **.sink_284.app[0].typename "\"TcpGenericServerApp\""
param **.sink_284.app[0].localAddress "\"\""
param **.sink_284.app[0].localPort 1100
param **.sink_284.app[0].replyDelay 0s
param **.sink_285.numApps 1
param **.sink_285.app[0].typename "\"TcpGenericServerApp\""
param **.sink_285.app[0].localAddress "\"\""
param **.sink_285.app[0].localPort 1100
param **.sink_285.app[0].replyDelay 0s
param **.sink_286.numApps 1
param **.sink_286.app[0].typename "\"TcpGenericServerApp\""
param **.sink_286.app[0].localAddress "\"\""
param **.sink_286.app[0].localPort 1100
param **.sink_286.app[0].replyDelay 0s
param **.sink_287.numApps 1
param **.sink_287.app[0].typename "\"TcpGenericServerApp\""
param **.sink_287.app[0].localAddress "\"\""
param **.sink_287.app[0].localPort 1100
param **.sink_287.app[0].replyDelay 0s
param **.sink_288.numApps 1
param **.sink_288.app[0].typename "\"TcpGenericServerApp\""
param **.sink_288.app[0].localAddress "\"\""
param **.sink_288.app[0].localPort 1100
param **.sink_288.app[0].replyDelay 0s
param **.sink_289.numApps 1
param **.sink_289.app[0].typename "\"TcpGenericServerApp\""
param **.sink_289.app[0].localAddress "\"\""
param **.sink_289.app[0].localPort 1100
param **.sink_289.app[0].replyDelay 0s
param **.sink_290.numApps 1
param **.sink_290.app[0].typename "\"TcpGenericServerApp\""
param **.sink_290.app[0].localAddress "\"\""
param **.sink_290.app[0].localPort 1100
param **.sink_290.app[0].replyDelay 0s
param **.sink_291.numApps 1
param **.sink_291.app[0].typename "\"TcpGenericServerApp\""
param **.sink_291.app[0].localAddress "\"\""
param **.sink_291.app[0].localPort 1100
param **.sink_291.app[0].replyDelay 0s
param **.sink_292.numApps 1
param **.sink_292.app[0].typename "\"TcpGenericServerApp\""
param **.sink_292.app[0].localAddress "\"\""
param **.sink_292.app[0].localPort 1100
param **.sink_292.app[0].replyDelay 0s
param **.sink_293.numApps 1
param **.sink_293.app[0].typename "\"TcpGenericServerApp\""
param **.sink_293.app[0].localAddress "\"\""
param **.sink_293.app[0].localPort 1100
param **.sink_293.app[0].replyDelay 0s
param **.sink_294.numApps 1
param **.sink_294.app[0].typename "\"TcpGenericServerApp\""
param **.sink_294.app[0].localAddress "\"\""
param **.sink_294.app[0].localPort 1100
param **.sink_294.app[0].replyDelay 0s
param **.sink_295.numApps 1
param **.sink_295.app[0].typename "\"TcpGenericServerApp\""
param **.sink_295.app[0].localAddress "\"\""
param **.sink_295.app[0].localPort 1100
param **.sink_295.app[0].replyDelay 0s
param **.sink_296.numApps 1
param **.sink_296.app[0].typename "\"TcpGenericServerApp\""
param **.sink_296.app[0].localAddress "\"\""
param **.sink_296.app[0].localPort 1100
param **.sink_296.app[0].replyDelay 0s
param **.sink_297.numApps 1
param **.sink_297.app[0].typename "\"TcpGenericServerApp\""
param **.sink_297.app[0].localAddress "\"\""
param **.sink_297.app[0].localPort 1100
param **.sink_297.app[0].replyDelay 0s
param **.sink_298.numApps 1
param **.sink_298.app[0].typename "\"TcpGenericServerApp\""
param **.sink_298.app[0].localAddress "\"\""
param **.sink_298.app[0].localPort 1100
param **.sink_298.app[0].replyDelay 0s
param **.sink_299.numApps 1
param **.sink_299.app[0].typename "\"TcpGenericServerApp\""
param **.sink_299.app[0].localAddress "\"\""
param **.sink_299.app[0].localPort 1100
param **.sink_299.app[0].replyDelay 0s
param **.sink_300.numApps 1
param **.sink_300.app[0].typename "\"TcpGenericServerApp\""
param **.sink_300.app[0].localAddress "\"\""
param **.sink_300.app[0].localPort 1100
param **.sink_300.app[0].replyDelay 0s
param **.sink_301.numApps 1
param **.sink_301.app[0].typename "\"TcpGenericServerApp\""
param **.sink_301.app[0].localAddress "\"\""
param **.sink_301.app[0].localPort 1100
param **.sink_301.app[0].replyDelay 0s
param **.sink_302.numApps 1
param **.sink_302.app[0].typename "\"TcpGenericServerApp\""
param **.sink_302.app[0].localAddress "\"\""
param **.sink_302.app[0].localPort 1100
param **.sink_302.app[0].replyDelay 0s
param **.sink_303.numApps 1
param **.sink_303.app[0].typename "\"TcpGenericServerApp\""
param **.sink_303.app[0].localAddress "\"\""
param **.sink_303.app[0].localPort 1100
param **.sink_303.app[0].replyDelay 0s
param **.sink_304.numApps 1
param **.sink_304.app[0].typename "\"TcpGenericServerApp\""
param **.sink_304.app[0].localAddress "\"\""
param **.sink_304.app[0].localPort 1100
param **.sink_304.app[0].replyDelay 0s
param **.sink_305.numApps 1
param **.sink_305.app[0].typename "\"TcpGenericServerApp\""
param **.sink_305.app[0].localAddress "\"\""
param **.sink_305.app[0].localPort 1100
param **.sink_305.app[0].replyDelay 0s
param **.sink_306.numApps 1
param **.sink_306.app[0].typename "\"TcpGenericServerApp\""
param **.sink_306.app[0].localAddress "\"\""
param **.sink_306.app[0].localPort 1100
param **.sink_306.app[0].replyDelay 0s
param **.sink_307.numApps 1
param **.sink_307.app[0].typename "\"TcpGenericServerApp\""
param **.sink_307.app[0].localAddress "\"\""
param **.sink_307.app[0].localPort 1100
param **.sink_307.app[0].replyDelay 0s
param **.sink_308.numApps 1
param **.sink_308.app[0].typename "\"TcpGenericServerApp\""
param **.sink_308.app[0].localAddress "\"\""
param **.sink_308.app[0].localPort 1100
param **.sink_308.app[0].replyDelay 0s
param **.sink_309.numApps 1
param **.sink_309.app[0].typename "\"TcpGenericServerApp\""
param **.sink_309.app[0].localAddress "\"\""
param **.sink_309.app[0].localPort 1100
param **.sink_309.app[0].replyDelay 0s
param **.sink_310.numApps 1
param **.sink_310.app[0].typename "\"TcpGenericServerApp\""
param **.sink_310.app[0].localAddress "\"\""
param **.sink_310.app[0].localPort 1100
param **.sink_310.app[0].replyDelay 0s
param **.sink_311.numApps 1
param **.sink_311.app[0].typename "\"TcpGenericServerApp\""
param **.sink_311.app[0].localAddress "\"\""
param **.sink_311.app[0].localPort 1100
param **.sink_311.app[0].replyDelay 0s
param **.sink_312.numApps 1
param **.sink_312.app[0].typename "\"TcpGenericServerApp\""
param **.sink_312.app[0].localAddress "\"\""
param **.sink_312.app[0].localPort 1100
param **.sink_312.app[0].replyDelay 0s
param **.sink_313.numApps 1
param **.sink_313.app[0].typename "\"TcpGenericServerApp\""
param **.sink_313.app[0].localAddress "\"\""
param **.sink_313.app[0].localPort 1100
param **.sink_313.app[0].replyDelay 0s
param **.sink_314.numApps 1
param **.sink_314.app[0].typename "\"TcpGenericServerApp\""
param **.sink_314.app[0].localAddress "\"\""
param **.sink_314.app[0].localPort 1100
param **.sink_314.app[0].replyDelay 0s
param **.sink_315.numApps 1
param **.sink_315.app[0].typename "\"TcpGenericServerApp\""
param **.sink_315.app[0].localAddress "\"\""
param **.sink_315.app[0].localPort 1100
param **.sink_315.app[0].replyDelay 0s
param **.sink_316.numApps 1
param **.sink_316.app[0].typename "\"TcpGenericServerApp\""
param **.sink_316.app[0].localAddress "\"\""
param **.sink_316.app[0].localPort 1100
param **.sink_316.app[0].replyDelay 0s
param **.sink_317.numApps 1
param **.sink_317.app[0].typename "\"TcpGenericServerApp\""
param **.sink_317.app[0].localAddress "\"\""
param **.sink_317.app[0].localPort 1100
param **.sink_317.app[0].replyDelay 0s
param **.sink_318.numApps 1
param **.sink_318.app[0].typename "\"TcpGenericServerApp\""
param **.sink_318.app[0].localAddress "\"\""
param **.sink_318.app[0].localPort 1100
param **.sink_318.app[0].replyDelay 0s
param **.sink_319.numApps 1
param **.sink_319.app[0].typename "\"TcpGenericServerApp\""
param **.sink_319.app[0].localAddress "\"\""
param **.sink_319.app[0].localPort 1100
param **.sink_319.app[0].replyDelay 0s
param **.sink_320.numApps 1
param **.sink_320.app[0].typename "\"TcpGenericServerApp\""
param **.sink_320.app[0].localAddress "\"\""
param **.sink_320.app[0].localPort 1100
param **.sink_320.app[0].replyDelay 0s
param **.sink_321.numApps 1
param **.sink_321.app[0].typename "\"TcpGenericServerApp\""
param **.sink_321.app[0].localAddress "\"\""
param **.sink_321.app[0].localPort 1100
param **.sink_321.app[0].replyDelay 0s
param **.sink_322.numApps 1
param **.sink_322.app[0].typename "\"TcpGenericServerApp\""
param **.sink_322.app[0].localAddress "\"\""
param **.sink_322.app[0].localPort 1100
param **.sink_322.app[0].replyDelay 0s
param **.sink_323.numApps 1
param **.sink_323.app[0].typename "\"TcpGenericServerApp\""
param **.sink_323.app[0].localAddress "\"\""
param **.sink_323.app[0].localPort 1100
param **.sink_323.app[0].replyDelay 0s
param **.sink_324.numApps 1
param **.sink_324.app[0].typename "\"TcpGenericServerApp\""
param **.sink_324.app[0].localAddress "\"\""
param **.sink_324.app[0].localPort 1100
param **.sink_324.app[0].replyDelay 0s
param **.sink_325.numApps 1
param **.sink_325.app[0].typename "\"TcpGenericServerApp\""
param **.sink_325.app[0].localAddress "\"\""
param **.sink_325.app[0].localPort 1100
param **.sink_325.app[0].replyDelay 0s
param **.sink_326.numApps 1
param **.sink_326.app[0].typename "\"TcpGenericServerApp\""
param **.sink_326.app[0].localAddress "\"\""
param **.sink_326.app[0].localPort 1100
param **.sink_326.app[0].replyDelay 0s
param **.sink_327.numApps 1
param **.sink_327.app[0].typename "\"TcpGenericServerApp\""
param **.sink_327.app[0].localAddress "\"\""
param **.sink_327.app[0].localPort 1100
param **.sink_327.app[0].replyDelay 0s
param **.sink_328.numApps 1
param **.sink_328.app[0].typename "\"TcpGenericServerApp\""
param **.sink_328.app[0].localAddress "\"\""
param **.sink_328.app[0].localPort 1100
param **.sink_328.app[0].replyDelay 0s
param **.sink_329.numApps 1
param **.sink_329.app[0].typename "\"TcpGenericServerApp\""
param **.sink_329.app[0].localAddress "\"\""
param **.sink_329.app[0].localPort 1100
param **.sink_329.app[0].replyDelay 0s
param **.sink_330.numApps 1
param **.sink_330.app[0].typename "\"TcpGenericServerApp\""
param **.sink_330.app[0].localAddress "\"\""
param **.sink_330.app[0].localPort 1100
param **.sink_330.app[0].replyDelay 0s
param **.sink_331.numApps 1
param **.sink_331.app[0].typename "\"TcpGenericServerApp\""
param **.sink_331.app[0].localAddress "\"\""
param **.sink_331.app[0].localPort 1100
param **.sink_331.app[0].replyDelay 0s
param **.sink_332.numApps 1
param **.sink_332.app[0].typename "\"TcpGenericServerApp\""
param **.sink_332.app[0].localAddress "\"\""
param **.sink_332.app[0].localPort 1100
param **.sink_332.app[0].replyDelay 0s
param **.sink_333.numApps 1
param **.sink_333.app[0].typename "\"TcpGenericServerApp\""
param **.sink_333.app[0].localAddress "\"\""
param **.sink_333.app[0].localPort 1100
param **.sink_333.app[0].replyDelay 0s
param **.sink_334.numApps 1
param **.sink_334.app[0].typename "\"TcpGenericServerApp\""
param **.sink_334.app[0].localAddress "\"\""
param **.sink_334.app[0].localPort 1100
param **.sink_334.app[0].replyDelay 0s
param **.sink_335.numApps 1
param **.sink_335.app[0].typename "\"TcpGenericServerApp\""
param **.sink_335.app[0].localAddress "\"\""
param **.sink_335.app[0].localPort 1100
param **.sink_335.app[0].replyDelay 0s
param **.sink_336.numApps 1
param **.sink_336.app[0].typename "\"TcpGenericServerApp\""
param **.sink_336.app[0].localAddress "\"\""
param **.sink_336.app[0].localPort 1100
param **.sink_336.app[0].replyDelay 0s
param **.sink_337.numApps 1
param **.sink_337.app[0].typename "\"TcpGenericServerApp\""
param **.sink_337.app[0].localAddress "\"\""
param **.sink_337.app[0].localPort 1100
param **.sink_337.app[0].replyDelay 0s
param **.sink_338.numApps 1
param **.sink_338.app[0].typename "\"TcpGenericServerApp\""
param **.sink_338.app[0].localAddress "\"\""
param **.sink_338.app[0].localPort 1100
param **.sink_338.app[0].replyDelay 0s
param **.sink_339.numApps 1
param **.sink_339.app[0].typename "\"TcpGenericServerApp\""
param **.sink_339.app[0].localAddress "\"\""
param **.sink_339.app[0].localPort 1100
param **.sink_339.app[0].replyDelay 0s
param **.sink_340.numApps 1
param **.sink_340.app[0].typename "\"TcpGenericServerApp\""
param **.sink_340.app[0].localAddress "\"\""
param **.sink_340.app[0].localPort 1100
param **.sink_340.app[0].replyDelay 0s
param **.sink_341.numApps 1
param **.sink_341.app[0].typename "\"TcpGenericServerApp\""
param **.sink_341.app[0].localAddress "\"\""
param **.sink_341.app[0].localPort 1100
param **.sink_341.app[0].replyDelay 0s
param **.sink_342.numApps 1
param **.sink_342.app[0].typename "\"TcpGenericServerApp\""
param **.sink_342.app[0].localAddress "\"\""
param **.sink_342.app[0].localPort 1100
param **.sink_342.app[0].replyDelay 0s
param **.sink_343.numApps 1
param **.sink_343.app[0].typename "\"TcpGenericServerApp\""
param **.sink_343.app[0].localAddress "\"\""
param **.sink_343.app[0].localPort 1100
param **.sink_343.app[0].replyDelay 0s
param **.sink_344.numApps 1
param **.sink_344.app[0].typename "\"TcpGenericServerApp\""
param **.sink_344.app[0].localAddress "\"\""
param **.sink_344.app[0].localPort 1100
param **.sink_344.app[0].replyDelay 0s
param **.sink_345.numApps 1
param **.sink_345.app[0].typename "\"TcpGenericServerApp\""
param **.sink_345.app[0].localAddress "\"\""
param **.sink_345.app[0].localPort 1100
param **.sink_345.app[0].replyDelay 0s
param **.sink_346.numApps 1
param **.sink_346.app[0].typename "\"TcpGenericServerApp\""
param **.sink_346.app[0].localAddress "\"\""
param **.sink_346.app[0].localPort 1100
param **.sink_346.app[0].replyDelay 0s
param **.sink_347.numApps 1
param **.sink_347.app[0].typename "\"TcpGenericServerApp\""
param **.sink_347.app[0].localAddress "\"\""
param **.sink_347.app[0].localPort 1100
param **.sink_347.app[0].replyDelay 0s
param **.sink_348.numApps 1
param **.sink_348.app[0].typename "\"TcpGenericServerApp\""
param **.sink_348.app[0].localAddress "\"\""
param **.sink_348.app[0].localPort 1100
param **.sink_348.app[0].replyDelay 0s
param **.sink_349.numApps 1
param **.sink_349.app[0].typename "\"TcpGenericServerApp\""
param **.sink_349.app[0].localAddress "\"\""
param **.sink_349.app[0].localPort 1100
param **.sink_349.app[0].replyDelay 0s
param **.sink_350.numApps 1
param **.sink_350.app[0].typename "\"TcpGenericServerApp\""
param **.sink_350.app[0].localAddress "\"\""
param **.sink_350.app[0].localPort 1100
param **.sink_350.app[0].replyDelay 0s
param **.sink_351.numApps 1
param **.sink_351.app[0].typename "\"TcpGenericServerApp\""
param **.sink_351.app[0].localAddress "\"\""
param **.sink_351.app[0].localPort 1100
param **.sink_351.app[0].replyDelay 0s
param **.sink_352.numApps 1
param **.sink_352.app[0].typename "\"TcpGenericServerApp\""
param **.sink_352.app[0].localAddress "\"\""
param **.sink_352.app[0].localPort 1100
param **.sink_352.app[0].replyDelay 0s
param **.sink_353.numApps 1
param **.sink_353.app[0].typename "\"TcpGenericServerApp\""
param **.sink_353.app[0].localAddress "\"\""
param **.sink_353.app[0].localPort 1100
param **.sink_353.app[0].replyDelay 0s
param **.sink_354.numApps 1
param **.sink_354.app[0].typename "\"TcpGenericServerApp\""
param **.sink_354.app[0].localAddress "\"\""
param **.sink_354.app[0].localPort 1100
param **.sink_354.app[0].replyDelay 0s
param **.sink_355.numApps 1
param **.sink_355.app[0].typename "\"TcpGenericServerApp\""
param **.sink_355.app[0].localAddress "\"\""
param **.sink_355.app[0].localPort 1100
param **.sink_355.app[0].replyDelay 0s
param **.sink_356.numApps 1
param **.sink_356.app[0].typename "\"TcpGenericServerApp\""
param **.sink_356.app[0].localAddress "\"\""
param **.sink_356.app[0].localPort 1100
param **.sink_356.app[0].replyDelay 0s
param **.sink_357.numApps 1
param **.sink_357.app[0].typename "\"TcpGenericServerApp\""
param **.sink_357.app[0].localAddress "\"\""
param **.sink_357.app[0].localPort 1100
param **.sink_357.app[0].replyDelay 0s
param **.sink_358.numApps 1
param **.sink_358.app[0].typename "\"TcpGenericServerApp\""
param **.sink_358.app[0].localAddress "\"\""
param **.sink_358.app[0].localPort 1100
param **.sink_358.app[0].replyDelay 0s
param **.sink_359.numApps 1
param **.sink_359.app[0].typename "\"TcpGenericServerApp\""
param **.sink_359.app[0].localAddress "\"\""
param **.sink_359.app[0].localPort 1100
param **.sink_359.app[0].replyDelay 0s
param **.sink_360.numApps 1
param **.sink_360.app[0].typename "\"TcpGenericServerApp\""
param **.sink_360.app[0].localAddress "\"\""
param **.sink_360.app[0].localPort 1100
param **.sink_360.app[0].replyDelay 0s
param **.sink_361.numApps 1
param **.sink_361.app[0].typename "\"TcpGenericServerApp\""
param **.sink_361.app[0].localAddress "\"\""
param **.sink_361.app[0].localPort 1100
param **.sink_361.app[0].replyDelay 0s
param **.sink_362.numApps 1
param **.sink_362.app[0].typename "\"TcpGenericServerApp\""
param **.sink_362.app[0].localAddress "\"\""
param **.sink_362.app[0].localPort 1100
param **.sink_362.app[0].replyDelay 0s
param **.sink_363.numApps 1
param **.sink_363.app[0].typename "\"TcpGenericServerApp\""
param **.sink_363.app[0].localAddress "\"\""
param **.sink_363.app[0].localPort 1100
param **.sink_363.app[0].replyDelay 0s
param **.sink_364.numApps 1
param **.sink_364.app[0].typename "\"TcpGenericServerApp\""
param **.sink_364.app[0].localAddress "\"\""
param **.sink_364.app[0].localPort 1100
param **.sink_364.app[0].replyDelay 0s
param **.sink_365.numApps 1
param **.sink_365.app[0].typename "\"TcpGenericServerApp\""
param **.sink_365.app[0].localAddress "\"\""
param **.sink_365.app[0].localPort 1100
param **.sink_365.app[0].replyDelay 0s
param **.sink_366.numApps 1
param **.sink_366.app[0].typename "\"TcpGenericServerApp\""
param **.sink_366.app[0].localAddress "\"\""
param **.sink_366.app[0].localPort 1100
param **.sink_366.app[0].replyDelay 0s
param **.sink_367.numApps 1
param **.sink_367.app[0].typename "\"TcpGenericServerApp\""
param **.sink_367.app[0].localAddress "\"\""
param **.sink_367.app[0].localPort 1100
param **.sink_367.app[0].replyDelay 0s
param **.sink_368.numApps 1
param **.sink_368.app[0].typename "\"TcpGenericServerApp\""
param **.sink_368.app[0].localAddress "\"\""
param **.sink_368.app[0].localPort 1100
param **.sink_368.app[0].replyDelay 0s
param **.sink_369.numApps 1
param **.sink_369.app[0].typename "\"TcpGenericServerApp\""
param **.sink_369.app[0].localAddress "\"\""
param **.sink_369.app[0].localPort 1100
param **.sink_369.app[0].replyDelay 0s
param **.sink_370.numApps 1
param **.sink_370.app[0].typename "\"TcpGenericServerApp\""
param **.sink_370.app[0].localAddress "\"\""
param **.sink_370.app[0].localPort 1100
param **.sink_370.app[0].replyDelay 0s
param **.sink_371.numApps 1
param **.sink_371.app[0].typename "\"TcpGenericServerApp\""
param **.sink_371.app[0].localAddress "\"\""
param **.sink_371.app[0].localPort 1100
param **.sink_371.app[0].replyDelay 0s
param **.source_000.numApps 1
param **.source_000.app[0].typename "\"TcpBasicClientApp\""
param **.source_000.app[0].localAddress "\"\""
param **.source_000.app[0].connectAddress "\"sink_000\""
param **.source_000.app[0].connectPort 1100
param **.source_000.app[0].startTime 0s
param **.source_000.app[0].idleInterval 1000s
param **.source_000.app[0].requestLength 1300B
param **.source_000.app[0].replyLength 20B
param **.source_000.app[0].thinkTime 0s
param **.source_000.app[0].numRequestsPerSession 3
param **.source_001.numApps 1
[...]
1108	2685933	3.919049	0.001049
1108	2687808	3.928827	0.001049
1108	2689930	3.938605	0.001049
1108	2691574	3.948383	0.001049
1108	2693214	3.958161	0.001049
1108	2694851	3.967939	0.001049
1108	2696494	3.977717	0.001049
1108	2698224	3.987495	0.001049
1108	2699888	3.997273	0.001049
1108	2701528	4.007051	0.001049
1108	2703167	4.016829	0.001049
1108	2704804	4.026607	0.001049
1108	2706443	4.036385	0.001049
1108	2708192	4.046163	0.001049
1108	2709696	4.055941	0.001049
1108	2711206	4.065719	0.001049
1108	2712806	4.075497	0.001049
1108	2714334	4.085275	0.001049
1108	2715841	4.095053	0.001049
1108	2717347	4.104831	0.001049
1108	2718850	4.114609	0.001049
1108	2720350	4.124387	0.001049
1108	2721852	4.134165	0.001049
1108	2723356	4.143943	0.001049
1108	2724867	4.153721	0.001049
1108	2726466	4.163499	0.001049
1108	2727994	4.173277	0.001049
1108	2729501	4.183055	0.001049
1108	2731007	4.192833	0.001049
1108	2732510	4.202611	0.001049
1108	2734010	4.212389	0.001049
1108	2735512	4.222167	0.001049
1108	2737016	4.231945	0.001049
1108	2738527	4.241723	0.001049
1108	2740126	4.251501	0.001049
1108	2741654	4.261279	0.001049
1108	2743161	4.271057	0.001049
1108	2744679	4.280835	0.001049
1108	2746177	4.290613	0.001049
1108	2747559	4.300391	0.001049
1108	2748945	4.310169	0.001049
1108	2750332	4.319947	0.001049
1108	2751722	4.329725	0.001049
1108	2753197	4.339503	0.001049
1108	2754604	4.349281	0.001049
1108	2755990	4.359059	0.001049
1108	2757375	4.368837	0.001049
1108	2758756	4.378615	0.001049
1108	2760119	4.388393	0.001049
1108	2761554	4.398171	0.001049
1108	2762864	4.407949	0.001049
1108	2764127	4.417727	0.001049
1108	2765465	4.427505	0.001049
1108	2766735	4.437283	0.001049
1108	2767984	4.447061	0.001049
1108	2769225	4.456839	0.001049
1108	2770492	4.466617	0.001049
1108	2771742	4.476395	0.001049
1108	2772991	4.486173	0.001049
1108	2774245	4.495951	0.001049
1108	2775568	4.505729	0.001049
1108	2776863	4.515507	0.001049
1108	2778119	4.525285	0.001049
1108	2779368	4.535063	0.001049
1108	2780609	4.544841	0.001049
1108	2781858	4.554619	0.001049
1108	2783103	4.564397	0.001049
1108	2784348	4.574175	0.001049
1108	2785601	4.583953	0.001049
1108	2786917	4.593731	0.001049
1108	2788209	4.603509	0.001049
1108	2789458	4.613287	0.001049
1108	2790703	4.623065	0.001049
1108	2791948	4.632843	0.001049
1108	2793196	4.642621	0.001049
1108	2794441	4.652399	0.001049
1108	2795686	4.662177	0.001049
1108	2796939	4.671955	0.001049
1108	2798255	4.681733	0.001049
1108	2799547	4.691511	0.001049
1108	2800796	4.701289	0.001049
1108	2802041	4.711067	0.001049
1108	2803286	4.720845	0.001049
1108	2804534	4.730623	0.001049
1108	2805779	4.740401	0.001049
1108	2807024	4.750179	0.001049
1108	2808277	4.759957	0.001049
1108	2809593	4.769735	0.001049
1108	2810885	4.779513	0.001049
1108	2812134	4.789291	0.001049
1108	2813378	4.799069	0.001049
1108	2814627	4.808847	0.001049
1108	2815872	4.818625	0.001049
1108	2817117	4.828403	0.001049
1108	2818362	4.838181	0.001049
1108	2819615	4.847959	0.001049
1108	2820931	4.857737	0.001049
1108	2822223	4.867515	0.001049
1108	2823469	4.877293	0.001049
1108	2824717	4.887071	0.001049
1108	2825965	4.896849	0.001049
1108	2827210	4.906627	0.001049
1108	2828448	4.916405	0.001049
1108	2829688	4.926183	0.001049
1108	2830937	4.935961	0.001049
1108	2832246	4.945739	0.001049
1108	2833534	4.955517	0.001049
1108	2834760	4.965295	0.001049
1108	2836119	4.975073	0.001049
1108	2837241	4.984851	0.001049
1108	2838341	4.994629	0.001049
1108	2839445	5.004407	0.001049
1108	2840611	5.014185	0.001049
1108	2841647	5.023963	0.001049
1108	2842660	5.033741	0.001049
1108	2843613	5.043519	0.001049
1108	2844588	5.053297	0.001049
1108	2845559	5.063075	0.001049
1108	2846530	5.072853	0.001049
1108	2847501	5.082631	0.001049
1108	2848472	5.092409	0.001049
1108	2849448	5.102187	0.001049
1108	2850493	5.111965	0.001049
1108	2851573	5.121743	0.001049
1108	2852469	5.131521	0.001049
1108	2853307	5.141299	0.001049
1108	2854145	5.151077	0.001049
1108	2854983	5.160855	0.001049
1109	119031	0.050487	0.004783
1109	201585	0.088619	0.005371
1109	261118	0.11642	0.003099
1109	303423	0.136696	0.003436
1109	343513	0.156829	0.002518
1109	374825	0.172464	0.002692
1109	410622	0.191478	0.00349
1109	451260	0.213008	0.004232
1109	485245	0.231759	0.004619
1109	515285	0.248663	0.002687
1109	546055	0.266247	0.002957
1109	576503	0.283862	0.003357
1109	610095	0.304188	0.005152
1109	637770	0.32129	0.005187
1109	671861	0.342073	0.009433
1109	698044	0.359235	0.004343
1109	722394	0.374765	0.003509
1109	750090	0.392587	0.003224
1109	773875	0.408676	0.002122
1109	797201	0.424555	0.002298
1109	811902	0.434399	0.001115
1109	833845	0.450143	0.002972
1109	855323	0.465141	0.003635
1109	875654	0.480021	0.003316
1109	892208	0.491787	0.001603
1109	910194	0.504589	0.001076
1109	930081	0.518997	0.001088
1109	951090	0.534877	0.002046
1109	971173	0.549849	0.002343
1109	991268	0.565308	0.003734
1109	1010273	0.580219	0.002475
1109	1025262	0.592137	0.001669
1109	1038951	0.60283	0.001398
1109	1056308	0.616319	0.001049
1109	1071793	0.62914	0.003158
1109	1087628	0.642105	0.001723
1109	1107320	0.658454	0.001324
1109	1122080	0.671676	0.001056
1109	1135153	0.683224	0.001049
1109	1152682	0.698981	0.003216
1109	1165784	0.710649	0.001049
1109	1179826	0.723787	0.001049
1109	1194977	0.737022	0.001872
1109	1205349	0.7468	0.001049
1109	1215893	0.75703	0.001049
1109	1227452	0.768196	0.001049
1109	1237450	0.777974	0.001049
1109	1247441	0.787752	0.001049
1109	1262727	0.80314	0.003111
1109	1273965	0.814462	0.001394
1109	1283934	0.825291	0.001049
1109	1293061	0.835069	0.001049
1109	1304171	0.847022	0.001049
1109	1315814	0.859451	0.001049
1109	1324684	0.869229	0.001049
1109	1334421	0.879819	0.001049
1109	1343624	0.889931	0.001049
1109	1357118	0.904872	0.003042
1109	1367962	0.916598	0.001049
1109	1378039	0.927734	0.001049
1109	1386788	0.937707	0.001049
1109	1397896	0.950843	0.001949
1109	1407528	0.961886	0.001049
1109	1416107	0.972451	0.001049
1109	1427147	0.985696	0.001196
1109	1436247	0.996956	0.001682
1109	1444101	1.00688	0.001049
1109	1452999	1.018025	0.001115
1109	1462220	1.029244	0.001049
1109	1470728	1.039554	0.001167
1109	1480287	1.05113	0.001049
1109	1489165	1.062087	0.001049
1109	1499894	1.07536	0.003197
1109	1509075	1.086705	0.001322
1109	1516935	1.096483	0.001049
1109	1526389	1.108562	0.002245
1109	1535187	1.119721	0.001542
1109	1543643	1.130419	0.001969
1109	1552095	1.141525	0.001049
1109	1560323	1.151731	0.001049
1109	1569276	1.162802	0.001095
1109	1578167	1.173828	0.002129
1109	1587740	1.186173	0.003616
1109	1596936	1.197245	0.001049
1109	1606329	1.20919	0.001049
1109	1614067	1.219469	0.001049
1109	1621881	1.229469	0.001049
1109	1631370	1.241475	0.001944
1109	1640225	1.252755	0.001096
1109	1648204	1.263813	0.001049
1109	1655530	1.273591	0.001049
1109	1664317	1.28464	0.001049
1109	1672211	1.295909	0.001085
1109	1680140	1.306858	0.001049
1109	1687023	1.316683	0.001049
1109	1694715	1.327675	0.001049
1109	1703498	1.340207	0.002456
1109	1710380	1.35052	0.001584
1109	1716939	1.360298	0.001049
1109	1723452	1.370123	0.001096
1109	1731695	1.382546	0.003277
1109	1738009	1.392436	0.001049
1109	1745859	1.404596	0.001049
1109	1753245	1.415889	0.001893
1109	1760371	1.426562	0.001049
1109	1766596	1.43634	0.001049
1109	1774178	1.448692	0.002672
1109	1780889	1.459329	0.001049
1109	1787007	1.469107	0.001049
1109	1794813	1.481273	0.00219
1109	1800771	1.491051	0.001049
1109	1807711	1.501563	0.001049
1109	1814213	1.511687	0.001069
1109	1821247	1.522786	0.001049
1109	1828236	1.533799	0.001049
1109	1836510	1.547183	0.00342
1109	1842812	1.557602	0.001526
1109	1849750	1.568387	0.002009
1109	1856645	1.579053	0.001937
1109	1863455	1.589911	0.002129
1110	119217	0.050579	0.00126
1110	182518	0.079783	0.001049
1110	241980	0.106833	0.001049
1110	290088	0.130469	0.002146
1110	329643	0.149718	0.00155
1110	362595	0.16612	0.00243
1110	389664	0.180264	0.002587
1110	418166	0.195256	0.002057
1110	440589	0.207369	0.001483
1110	462958	0.219347	0.002121
1110	483107	0.230594	0.002169
1110	505454	0.243159	0.002336
1110	523919	0.253624	0.002114
1110	549502	0.268221	0.001825
1110	566945	0.278583	0.001981
1110	586005	0.289549	0.001049
1110	601425	0.298988	0.001056
1110	618072	0.308818	0.001057
1110	638541	0.321817	0.001533
1110	658609	0.33406	0.001779
1110	675026	0.344164	0.001603
1110	690766	0.354166	0.001825
1110	708594	0.365474	0.001049
1110	725153	0.376485	0.002127
1110	739686	0.385971	0.001049
1110	755284	0.395882	0.001049
1110	771185	0.406671	0.001049
1110	785182	0.415731	0.001049
1110	799811	0.42617	0.001049
1110	812760	0.435008	0.00123
1110	829213	0.446807	0.002457
1110	844381	0.457765	0.001049
1110	860106	0.468908	0.002691
1110	873115	0.478165	0.001975
1110	886379	0.487404	0.001957
1110	897883	0.495735	0.001049
1110	911933	0.505597	0.001049
1110	927097	0.516991	0.001049
1110	942603	0.528471	0.001049
1110	956963	0.539174	0.001049
1110	970636	0.549464	0.002967
1110	982516	0.558736	0.00199
1110	996885	0.569838	0.00382
1110	1010567	0.580429	0.002359
1110	1021268	0.58876	0.001049
1110	1031889	0.597091	0.001049
1110	1043029	0.605642	0.001049
1110	1053302	0.614088	0.001049
1110	1066431	0.624932	0.001931
1110	1076488	0.633263	0.001049
1110	1087130	0.641594	0.001049
1110	1098351	0.650975	0.001049
1110	1111186	0.662107	0.00179
1110	1121375	0.671104	0.001049
1110	1130550	0.679435	0.001049
1110	1141293	0.688979	0.002262
1110	1150731	0.69731	0.001049
1110	1160584	0.706359	0.001767
1110	1170837	0.715483	0.001049
1110	1180000	0.72388	0.001049
1110	1189731	0.732596	0.001049
1110	1198655	0.741181	0.001216
1110	1209367	0.75092	0.001177
1110	1218453	0.759251	0.001049
1110	1226918	0.767582	0.001049
1110	1235440	0.775913	0.001049
1110	1244419	0.784712	0.001049
1110	1252964	0.793304	0.001049
1110	1262116	0.802364	0.001049
1110	1271020	0.81148	0.001049
1110	1280328	0.821117	0.001049
1110	1290455	0.832189	0.001049
1110	1299389	0.841824	0.001049
1110	1307384	0.850155	0.001049
1110	1316602	0.860223	0.001049
1110	1325702	0.870237	0.001049
1110	1335917	0.881356	0.001049
1110	1344712	0.890999	0.001049
1110	1354798	0.902118	0.001049
1110	1363445	0.911682	0.001049
1110	1373230	0.922306	0.001049
1110	1380701	0.930637	0.001049
1110	1388770	0.94011	0.001049
1110	1395914	0.948441	0.001049
1110	1403718	0.958037	0.00127
1110	1411783	0.967815	0.001369
1110	1418971	0.976146	0.001049
1110	1425780	0.98449	0.001062
1110	1432578	0.992821	0.001049
1110	1439941	1.002099	0.001049
1110	1446799	1.01043	0.001049
1110	1453639	1.018761	0.001049
1110	1460584	1.027141	0.001049
1110	1468253	1.036699	0.001049
1110	1475103	1.04503	0.001049
1110	1482296	1.053676	0.001049
1110	1489073	1.062007	0.001049
1110	1496630	1.071593	0.001049
1110	1502921	1.079924	0.001049
1110	1510335	1.08894	0.001734
1110	1517377	1.097292	0.001049
1110	1524082	1.105623	0.001049
1110	1530666	1.113954	0.001049
1110	1537796	1.123359	0.001049
1110	1544744	1.132421	0.001049
1110	1552500	1.142085	0.001049
1110	1559261	1.150416	0.001049
1110	1565954	1.158747	0.001049
1110	1573677	1.168466	0.001472
1110	1581459	1.178244	0.001472
1110	1589315	1.188022	0.001472
1111	121342	0.051628	0.007813
1111	206394	0.090671	0.004891
1111	272402	0.121537	0.001878
1111	338404	0.154261	0.003416
1111	384014	0.17723	0.000917
1111	441339	0.207733	0.005276
1111	487348	0.233037	0.0021
1111	528807	0.256347	0.003059
1111	564455	0.277	0.002567
1111	594843	0.294603	0.001813
1111	622542	0.311786	0.003521
1111	645303	0.326095	0.002449
1111	672374	0.342398	0.001977
1111	692629	0.355391	0.000889
1111	714362	0.369398	0.000909
1111	737389	0.384384	0.002002
1111	755352	0.395951	0.000882
1111	775850	0.409959	0.002344
1111	794773	0.422524	0.000969
1111	812663	0.434903	0.002196
1111	828431	0.446391	0.001185
1111	842366	0.456275	0.00117
1111	858201	0.467517	0.001204
1111	873483	0.478394	0.000882
1111	887789	0.48842	0.000882
1111	902274	0.49904	0.000882
1111	918721	0.510669	0.001868
1111	933456	0.521562	0.002872
1111	946076	0.530994	0.000909
1111	959004	0.54038	0.000913
1111	975457	0.553213	0.000882
1111	990108	0.564498	0.000952
1111	1003620	0.574963	0.003022
1111	1015166	0.584254	0.002009
1111	1027853	0.5942	0.002209
1111	1038394	0.602364	0.000882
1111	1055667	0.615863	0.004717
1111	1067894	0.626166	0.000882
1111	1082690	0.637958	0.001966
1111	1093457	0.646508	0.000882
1111	1103670	0.655426	0.000882
1111	1113502	0.664338	0.000882
1111	1126012	0.675104	0.00273
1111	1137448	0.68525	0.001331
1111	1147614	0.694339	0.000882
1111	1157388	0.70364	0.000882
1111	1169062	0.714169	0.003247
1111	1179532	0.723507	0.002056
1111	1190375	0.733032	0.002243
1111	1203214	0.745192	0.002137
1111	1215868	0.757028	0.001672
1111	1225710	0.766272	0.001962
1111	1236520	0.776937	0.001962
1111	1246551	0.786774	0.001962
1111	1254635	0.795009	0.000882
1111	1263076	0.803449	0.000882
1111	1275077	0.815719	0.0022
1111	1285438	0.826671	0.000882
1111	1294150	0.836221	0.001962
1111	1303346	0.84619	0.000882
1111	1313869	0.857298	0.001038
1111	1322051	0.866768	0.000897
1111	1331069	0.876697	0.001208
1111	1339864	0.886073	0.000882
1111	1349769	0.896978	0.002009
1111	1358566	0.906589	0.002009
1111	1367550	0.916256	0.002009
1111	1376497	0.926103	0.002009
1111	1384346	0.935394	0.002009
1111	1392168	0.944685	0.002009
1111	1399573	0.952849	0.000882
1111	1407050	0.9614	0.000882
1111	1413501	0.969564	0.000882
1111	1420871	0.978449	0.000882
1111	1428466	0.987839	0.002108
1111	1436370	0.997083	0.001962
1111	1443667	1.006327	0.001962
1111	1451284	1.015825	0.002216
1111	1458877	1.025069	0.001962
1111	1465475	1.033233	0.000882
1111	1472284	1.041397	0.000882
1111	1478810	1.049561	0.000882
1111	1485554	1.058479	0.001042
1111	1492663	1.06665	0.000882
1111	1501067	1.077287	0.003035
1111	1508930	1.086531	0.001962
1111	1515365	1.094695	0.000882
1111	1521827	1.102866	0.000889
1111	1528987	1.112098	0.000882
1111	1537495	1.122997	0.002651
1111	1545687	1.133527	0.002056
1111	1552211	1.141691	0.000882
1111	1558819	1.149855	0.000882
1111	1565704	1.158515	0.001322
1111	1572130	1.166679	0.000882
1111	1579739	1.17619	0.000882
1111	1586473	1.184354	0.000882
1111	1593592	1.193125	0.000882
1111	1601181	1.202636	0.001351
1111	1608231	1.21173	0.000882
1111	1615358	1.221188	0.001962
1111	1622873	1.230866	0.001962
1111	1629433	1.239046	0.000882
1111	1636608	1.24721	0.000882
1111	1642177	1.255374	0.000882
1111	1651104	1.266846	0.00107
1111	1657275	1.275506	0.000882
1111	1664494	1.284797	0.002009
1111	1670261	1.293065	0.000882
1111	1677065	1.302676	0.000882
1111	1683689	1.311967	0.000882
1111	1689757	1.320459	0.001043
1111	1695522	1.328648	0.000901
1111	1701882	1.337799	0.000909
1111	1709216	1.348717	0.002216
1111	1714511	1.356994	0.000882
1111	1720735	1.366638	0.000882
1111	1728211	1.377496	0.002129
1111	1734921	1.387274	0.002249
1111	1741149	1.397099	0.002463
1111	1747429	1.40683	0.002449
1111	1753765	1.416608	0.002496
1111	1760249	1.426386	0.002496
1111	1766450	1.436171	0.002503
1111	1771479	1.444595	0.001142
1111	1776632	1.452759	0.000882
1111	1782626	1.462003	0.001962
1111	1788620	1.471294	0.002009
1111	1794302	1.480538	0.001962
1111	1800830	1.491117	0.003297
1111	1807436	1.501221	0.002822
1111	1814512	1.51234	0.002916
1111	1820814	1.522118	0.001622
1111	1825837	1.530282	0.000882
1111	1831348	1.538967	0.000882
1111	1837684	1.548793	0.001962
1111	1843456	1.55835	0.001962
1111	1849859	1.568509	0.001962
1111	1855850	1.57812	0.001962
1111	1861729	1.587756	0.001962
1111	1868164	1.597678	0.001962
1111	1874411	1.607857	0.002513
1111	1881070	1.618646	0.0024
1111	1886758	1.628424	0.002306
1111	1892551	1.638202	0.002306
1111	1898514	1.64798	0.002306
1111	1903598	1.656144	0.000882
1111	1908617	1.664308	0.000882
1111	1913972	1.673161	0.001571
1111	1918647	1.681325	0.000882
1111	1924288	1.690613	0.000882
1111	1929847	1.700023	0.000882
1111	1935693	1.709661	0.000909
1111	1942407	1.720482	0.002119
1111	1947414	1.728856	0.000882
1111	1953022	1.738218	0.001962
1111	1958758	1.747919	0.001962
1111	1964755	1.757684	0.001962
1111	1970431	1.767469	0.002009
1111	1975733	1.777033	0.001962
1111	1981028	1.786644	0.001962
1111	1986315	1.796366	0.002073
1111	1991633	1.806144	0.00224
1111	1997067	1.816068	0.002009
1111	2002569	1.825874	0.002524
1111	2007954	1.835699	0.002543
1111	2013048	1.845532	0.002507
1111	2018059	1.855365	0.002551
1111	2023204	1.865198	0.002551
1111	2028436	1.875031	0.002551
1111	2033401	1.884864	0.002551
1111	2038399	1.894697	0.002551
1111	2043273	1.904558	0.002579
1111	2047976	1.914363	0.002523
1111	2052652	1.924196	0.002551
1111	2057368	1.934029	0.002551
1111	2062176	1.943862	0.002551
1111	2067401	1.954582	0.003438
1111	2072552	1.964779	0.002
1111	2077491	1.975096	0.001962
1111	2082292	1.984874	0.002496
1111	2086649	1.994127	0.001971
1111	2091673	2.004985	0.003576
1111	2096569	2.015502	0.002009
1111	2101115	2.025233	0.002267
1111	2106106	2.035674	0.003159
1111	2110601	2.045452	0.001378
1111	2114758	2.054601	0.000882
1111	2119149	2.064245	0.002195
1111	2122785	2.072409	0.000882
1111	2126738	2.081365	0.000882
1111	2130968	2.090976	0.000882
1111	2135274	2.100709	0.00089
1111	2139771	2.110487	0.00089
1111	2144188	2.120225	0.00095
1111	2148612	2.129721	0.000882
1111	2152885	2.139332	0.000882
1111	2157085	2.148943	0.000882
1111	2161389	2.158554	0.000882
1111	2166291	2.169292	0.002009
1111	2170520	2.178903	0.001962
1111	2174855	2.188597	0.001962
1111	2179244	2.198369	0.001962
1111	2184115	2.208848	0.001962
1111	2188381	2.218654	0.001962
1111	2192665	2.228432	0.001962
1111	2196977	2.238423	0.001962
1111	2201212	2.248201	0.001962
1111	2205467	2.257979	0.001962
1111	2209998	2.268019	0.002129
1111	2214322	2.278249	0.002948
1111	2218276	2.28796	0.001634
1111	2221621	2.296124	0.000882
1111	2225463	2.30557	0.001962
1111	2229270	2.315348	0.001962
1111	2233104	2.325126	0.001962
1111	2236887	2.33437	0.001962
1111	2240758	2.344023	0.002371
1111	2244579	2.353801	0.002496
1111	2248581	2.363626	0.002543
1111	2252294	2.373459	0.002551
1111	2256035	2.383292	0.002551
1111	2259741	2.393125	0.002551
1111	2263442	2.402958	0.002551
1111	2267251	2.412791	0.002551
1111	2270955	2.422624	0.002551
1111	2274747	2.432506	0.0026
1111	2278418	2.44229	0.002502
1111	2282047	2.452123	0.002551
1111	2285730	2.461956	0.002551
1111	2289523	2.471789	0.002551
1111	2293087	2.481622	0.002551
1111	2296735	2.491455	0.002551
1111	2300304	2.501288	0.002551
1111	2303857	2.511121	0.002551
1111	2307388	2.520954	0.002551
1111	2310928	2.530787	0.002551
1111	2314486	2.54062	0.002551
1111	2318024	2.550453	0.002551
1111	2321564	2.560286	0.002551
1111	2325153	2.570119	0.002551
1111	2328765	2.579952	0.002551
1111	2332313	2.589785	0.002551
1112	121849	0.051954	0.00355
1112	198778	0.08719	0.004835
1112	259947	0.115786	0.002889
1112	315861	0.142893	0.001822
1113	123317	0.052627	0.049336
1113	209264	0.091988	0.025199
1113	269926	0.120385	0.024733
1113	322107	0.145853	0.020878
1113	377650	0.173954	0.021249
1113	412186	0.192095	0.015985
1113	451122	0.212958	0.017551
1113	482379	0.230222	0.012701
1113	517800	0.250158	0.013711
1113	552182	0.269788	0.015599
1113	579941	0.286175	0.013509
1113	613186	0.306053	0.016363
1113	638297	0.321679	0.013042
1113	669800	0.340894	0.015304
1113	694604	0.356725	0.012135
1113	718810	0.37265	0.0113
1113	742561	0.387969	0.011651
1113	761978	0.40075	0.009023
1113	788349	0.418122	0.012759
1113	816237	0.437513	0.01203
1114	138404	0.059624	0.011085
1114	205434	0.090365	0.004141
1114	266509	0.118849	0.004087
1114	320201	0.144857	0.003233
1114	357425	0.163383	0.002008
1114	393441	0.182108	0.002437
1114	429723	0.201461	0.001049
1115	154156	0.066789	0.014162
1115	217508	0.095652	0.003664
1115	279193	0.124975	0.00459
1115	335463	0.152705	0.006852
1115	381786	0.17611	0.002156
1115	418372	0.195407	0.003312
1115	459625	0.217521	0.004563
1115	493556	0.236447	0.006225
1115	525119	0.254189	0.004031
1115	557135	0.272666	0.002878
1115	586316	0.28969	0.003515
1115	617738	0.308637	0.002584
1115	644477	0.32559	0.003911
1115	675846	0.34459	0.003696
1115	701843	0.36135	0.004625
1115	724830	0.376318	0.003668
1115	748447	0.391727	0.003758
1115	769498	0.405363	0.004613
1115	798863	0.425483	0.007361
1115	822784	0.442405	0.004892

