version 2
run General-0-20220427-22:50:47-22575
attr configname General
attr datetime 20220427-22:50:47
attr experiment General
attr inifile Jellyfish_24_8_7_8_per00001__jelly_faults_seed38.ini
attr iterationvars ""
attr iterationvarsf ""
attr measurement ""
attr network Jellyfish_24_8_7_8_per00001__jelly_faults_seed38
attr processid 22575
attr repetition 0
attr replication #0
attr resultdir results
attr runnumber 0
attr seedset 0
param **.ppp[*].ppp.queue.typename "\"DropTailQueue\""
param **.ppp[*].ppp.queue.packetCapacity 100
param *.configurator.config "xmldoc(\"Jellyfish_24_8_7_8_per00001__jelly_faults_seed38.xml\")"
param **.sink_000.numApps 1
param **.sink_000.app[0].typename "\"TcpGenericServerApp\""
param **.sink_000.app[0].localAddress "\"\""
param **.sink_000.app[0].localPort 1100
param **.sink_000.app[0].replyDelay 0s
param **.sink_001.numApps 1
param **.sink_001.app[0].typename "\"TcpGenericServerApp\""
param **.sink_001.app[0].localAddress "\"\""
param **.sink_001.app[0].localPort 1100
param **.sink_001.app[0].replyDelay 0s
param **.sink_002.numApps 1
param **.sink_002.app[0].typename "\"TcpGenericServerApp\""
param **.sink_002.app[0].localAddress "\"\""
param **.sink_002.app[0].localPort 1100
param **.sink_002.app[0].replyDelay 0s
param **.sink_003.numApps 1
param **.sink_003.app[0].typename "\"TcpGenericServerApp\""
param **.sink_003.app[0].localAddress "\"\""
param **.sink_003.app[0].localPort 1100
param **.sink_003.app[0].replyDelay 0s
param **.sink_004.numApps 1
param **.sink_004.app[0].typename "\"TcpGenericServerApp\""
param **.sink_004.app[0].localAddress "\"\""
param **.sink_004.app[0].localPort 1100
param **.sink_004.app[0].replyDelay 0s
param **.sink_005.numApps 1
param **.sink_005.app[0].typename "\"TcpGenericServerApp\""
param **.sink_005.app[0].localAddress "\"\""
param **.sink_005.app[0].localPort 1100
param **.sink_005.app[0].replyDelay 0s
param **.sink_006.numApps 1
param **.sink_006.app[0].typename "\"TcpGenericServerApp\""
param **.sink_006.app[0].localAddress "\"\""
param **.sink_006.app[0].localPort 1100
param **.sink_006.app[0].replyDelay 0s
param **.sink_007.numApps 1
param **.sink_007.app[0].typename "\"TcpGenericServerApp\""
param **.sink_007.app[0].localAddress "\"\""
param **.sink_007.app[0].localPort 1100
param **.sink_007.app[0].replyDelay 0s
param **.sink_008.numApps 1
param **.sink_008.app[0].typename "\"TcpGenericServerApp\""
param **.sink_008.app[0].localAddress "\"\""
param **.sink_008.app[0].localPort 1100
param **.sink_008.app[0].replyDelay 0s
param **.sink_009.numApps 1
param **.sink_009.app[0].typename "\"TcpGenericServerApp\""
param **.sink_009.app[0].localAddress "\"\""
param **.sink_009.app[0].localPort 1100
param **.sink_009.app[0].replyDelay 0s
param **.sink_010.numApps 1
param **.sink_010.app[0].typename "\"TcpGenericServerApp\""
param **.sink_010.app[0].localAddress "\"\""
param **.sink_010.app[0].localPort 1100
param **.sink_010.app[0].replyDelay 0s
param **.sink_011.numApps 1
param **.sink_011.app[0].typename "\"TcpGenericServerApp\""
param **.sink_011.app[0].localAddress "\"\""
param **.sink_011.app[0].localPort 1100
param **.sink_011.app[0].replyDelay 0s
param **.sink_012.numApps 1
param **.sink_012.app[0].typename "\"TcpGenericServerApp\""
param **.sink_012.app[0].localAddress "\"\""
param **.sink_012.app[0].localPort 1100
param **.sink_012.app[0].replyDelay 0s
param **.sink_013.numApps 1
param **.sink_013.app[0].typename "\"TcpGenericServerApp\""
param **.sink_013.app[0].localAddress "\"\""
param **.sink_013.app[0].localPort 1100
param **.sink_013.app[0].replyDelay 0s
param **.sink_014.numApps 1
param **.sink_014.app[0].typename "\"TcpGenericServerApp\""
param **.sink_014.app[0].localAddress "\"\""
param **.sink_014.app[0].localPort 1100
param **.sink_014.app[0].replyDelay 0s
param **.sink_015.numApps 1
param **.sink_015.app[0].typename "\"TcpGenericServerApp\""
param **.sink_015.app[0].localAddress "\"\""
param **.sink_015.app[0].localPort 1100
param **.sink_015.app[0].replyDelay 0s
param **.sink_016.numApps 1
param **.sink_016.app[0].typename "\"TcpGenericServerApp\""
param **.sink_016.app[0].localAddress "\"\""
param **.sink_016.app[0].localPort 1100
param **.sink_016.app[0].replyDelay 0s
param **.sink_017.numApps 1
param **.sink_017.app[0].typename "\"TcpGenericServerApp\""
param **.sink_017.app[0].localAddress "\"\""
param **.sink_017.app[0].localPort 1100
param **.sink_017.app[0].replyDelay 0s
param **.sink_018.numApps 1
param **.sink_018.app[0].typename "\"TcpGenericServerApp\""
param **.sink_018.app[0].localAddress "\"\""
param **.sink_018.app[0].localPort 1100
param **.sink_018.app[0].replyDelay 0s
param **.sink_019.numApps 1
param **.sink_019.app[0].typename "\"TcpGenericServerApp\""
param **.sink_019.app[0].localAddress "\"\""
param **.sink_019.app[0].localPort 1100
param **.sink_019.app[0].replyDelay 0s
param **.sink_020.numApps 1
param **.sink_020.app[0].typename "\"TcpGenericServerApp\""
param **.sink_020.app[0].localAddress "\"\""
param **.sink_020.app[0].localPort 1100
param **.sink_020.app[0].replyDelay 0s
param **.sink_021.numApps 1
param **.sink_021.app[0].typename "\"TcpGenericServerApp\""
param **.sink_021.app[0].localAddress "\"\""
param **.sink_021.app[0].localPort 1100
param **.sink_021.app[0].replyDelay 0s
param **.sink_022.numApps 1
param **.sink_022.app[0].typename "\"TcpGenericServerApp\""
param **.sink_022.app[0].localAddress "\"\""
param **.sink_022.app[0].localPort 1100
param **.sink_022.app[0].replyDelay 0s
param **.sink_023.numApps 1
param **.sink_023.app[0].typename "\"TcpGenericServerApp\""
param **.sink_023.app[0].localAddress "\"\""
param **.sink_023.app[0].localPort 1100
param **.sink_023.app[0].replyDelay 0s
param **.sink_024.numApps 1
param **.sink_024.app[0].typename "\"TcpGenericServerApp\""
param **.sink_024.app[0].localAddress "\"\""
param **.sink_024.app[0].localPort 1100
param **.sink_024.app[0].replyDelay 0s
param **.sink_025.numApps 1
param **.sink_025.app[0].typename "\"TcpGenericServerApp\""
param **.sink_025.app[0].localAddress "\"\""
param **.sink_025.app[0].localPort 1100
param **.sink_025.app[0].replyDelay 0s
param **.sink_026.numApps 1
param **.sink_026.app[0].typename "\"TcpGenericServerApp\""
param **.sink_026.app[0].localAddress "\"\""
param **.sink_026.app[0].localPort 1100
param **.sink_026.app[0].replyDelay 0s
param **.sink_027.numApps 1
param **.sink_027.app[0].typename "\"TcpGenericServerApp\""
param **.sink_027.app[0].localAddress "\"\""
param **.sink_027.app[0].localPort 1100
param **.sink_027.app[0].replyDelay 0s
param **.sink_028.numApps 1
param **.sink_028.app[0].typename "\"TcpGenericServerApp\""
param **.sink_028.app[0].localAddress "\"\""
param **.sink_028.app[0].localPort 1100
param **.sink_028.app[0].replyDelay 0s
param **.sink_029.numApps 1
param **.sink_029.app[0].typename "\"TcpGenericServerApp\""
param **.sink_029.app[0].localAddress "\"\""
param **.sink_029.app[0].localPort 1100
param **.sink_029.app[0].replyDelay 0s
param **.sink_030.numApps 1
param **.sink_030.app[0].typename "\"TcpGenericServerApp\""
param **.sink_030.app[0].localAddress "\"\""
param **.sink_030.app[0].localPort 1100
param **.sink_030.app[0].replyDelay 0s
param **.sink_031.numApps 1
param **.sink_031.app[0].typename "\"TcpGenericServerApp\""
param **.sink_031.app[0].localAddress "\"\""
param **.sink_031.app[0].localPort 1100
param **.sink_031.app[0].replyDelay 0s
param **.sink_032.numApps 1
param **.sink_032.app[0].typename "\"TcpGenericServerApp\""
param **.sink_032.app[0].localAddress "\"\""
param **.sink_032.app[0].localPort 1100
param **.sink_032.app[0].replyDelay 0s
param **.sink_033.numApps 1
param **.sink_033.app[0].typename "\"TcpGenericServerApp\""
param **.sink_033.app[0].localAddress "\"\""
param **.sink_033.app[0].localPort 1100
param **.sink_033.app[0].replyDelay 0s
param **.sink_034.numApps 1
param **.sink_034.app[0].typename "\"TcpGenericServerApp\""
param **.sink_034.app[0].localAddress "\"\""
param **.sink_034.app[0].localPort 1100
param **.sink_034.app[0].replyDelay 0s
param **.sink_035.numApps 1
param **.sink_035.app[0].typename "\"TcpGenericServerApp\""
param **.sink_035.app[0].localAddress "\"\""
param **.sink_035.app[0].localPort 1100
param **.sink_035.app[0].replyDelay 0s
param **.sink_036.numApps 1
param **.sink_036.app[0].typename "\"TcpGenericServerApp\""
param **.sink_036.app[0].localAddress "\"\""
param **.sink_036.app[0].localPort 1100
param **.sink_036.app[0].replyDelay 0s
param **.sink_037.numApps 1
param **.sink_037.app[0].typename "\"TcpGenericServerApp\""
param **.sink_037.app[0].localAddress "\"\""
param **.sink_037.app[0].localPort 1100
param **.sink_037.app[0].replyDelay 0s
param **.sink_038.numApps 1
param **.sink_038.app[0].typename "\"TcpGenericServerApp\""
param **.sink_038.app[0].localAddress "\"\""
param **.sink_038.app[0].localPort 1100
param **.sink_038.app[0].replyDelay 0s
param **.sink_039.numApps 1
param **.sink_039.app[0].typename "\"TcpGenericServerApp\""
param **.sink_039.app[0].localAddress "\"\""
param **.sink_039.app[0].localPort 1100
param **.sink_039.app[0].replyDelay 0s
param **.sink_040.numApps 1
param **.sink_040.app[0].typename "\"TcpGenericServerApp\""
param **.sink_040.app[0].localAddress "\"\""
param **.sink_040.app[0].localPort 1100
param **.sink_040.app[0].replyDelay 0s
param **.sink_041.numApps 1
param **.sink_041.app[0].typename "\"TcpGenericServerApp\""
param **.sink_041.app[0].localAddress "\"\""
param **.sink_041.app[0].localPort 1100
param **.sink_041.app[0].replyDelay 0s
param **.sink_042.numApps 1
param **.sink_042.app[0].typename "\"TcpGenericServerApp\""
param **.sink_042.app[0].localAddress "\"\""
param **.sink_042.app[0].localPort 1100
param **.sink_042.app[0].replyDelay 0s
param **.sink_043.numApps 1
param **.sink_043.app[0].typename "\"TcpGenericServerApp\""
param **.sink_043.app[0].localAddress "\"\""
param **.sink_043.app[0].localPort 1100
param **.sink_043.app[0].replyDelay 0s
param **.sink_044.numApps 1
param **.sink_044.app[0].typename "\"TcpGenericServerApp\""
param **.sink_044.app[0].localAddress "\"\""
param **.sink_044.app[0].localPort 1100
param **.sink_044.app[0].replyDelay 0s
param **.sink_045.numApps 1
param **.sink_045.app[0].typename "\"TcpGenericServerApp\""
param **.sink_045.app[0].localAddress "\"\""
param **.sink_045.app[0].localPort 1100
param **.sink_045.app[0].replyDelay 0s
param **.sink_046.numApps 1
param **.sink_046.app[0].typename "\"TcpGenericServerApp\""
param **.sink_046.app[0].localAddress "\"\""
param **.sink_046.app[0].localPort 1100
param **.sink_046.app[0].replyDelay 0s
param **.sink_047.numApps 1
param **.sink_047.app[0].typename "\"TcpGenericServerApp\""
param **.sink_047.app[0].localAddress "\"\""
param **.sink_047.app[0].localPort 1100
param **.sink_047.app[0].replyDelay 0s
param **.sink_048.numApps 1
param **.sink_048.app[0].typename "\"TcpGenericServerApp\""
param **.sink_048.app[0].localAddress "\"\""
param **.sink_048.app[0].localPort 1100
param **.sink_048.app[0].replyDelay 0s
param **.sink_049.numApps 1
param **.sink_049.app[0].typename "\"TcpGenericServerApp\""
param **.sink_049.app[0].localAddress "\"\""
param **.sink_049.app[0].localPort 1100
param **.sink_049.app[0].replyDelay 0s
param **.sink_050.numApps 1
param **.sink_050.app[0].typename "\"TcpGenericServerApp\""
param **.sink_050.app[0].localAddress "\"\""
param **.sink_050.app[0].localPort 1100
param **.sink_050.app[0].replyDelay 0s
param **.sink_051.numApps 1
param **.sink_051.app[0].typename "\"TcpGenericServerApp\""
param **.sink_051.app[0].localAddress "\"\""
param **.sink_051.app[0].localPort 1100
param **.sink_051.app[0].replyDelay 0s
param **.sink_052.numApps 1
param **.sink_052.app[0].typename "\"TcpGenericServerApp\""
param **.sink_052.app[0].localAddress "\"\""
param **.sink_052.app[0].localPort 1100
param **.sink_052.app[0].replyDelay 0s
param **.sink_053.numApps 1
param **.sink_053.app[0].typename "\"TcpGenericServerApp\""
param **.sink_053.app[0].localAddress "\"\""
param **.sink_053.app[0].localPort 1100
param **.sink_053.app[0].replyDelay 0s
param **.sink_054.numApps 1
param **.sink_054.app[0].typename "\"TcpGenericServerApp\""
param **.sink_054.app[0].localAddress "\"\""
param **.sink_054.app[0].localPort 1100
param **.sink_054.app[0].replyDelay 0s
param **.sink_055.numApps 1
param **.sink_055.app[0].typename "\"TcpGenericServerApp\""
param **.sink_055.app[0].localAddress "\"\""
param **.sink_055.app[0].localPort 1100
param **.sink_055.app[0].replyDelay 0s
param **.sink_056.numApps 1
param **.sink_056.app[0].typename "\"TcpGenericServerApp\""
param **.sink_056.app[0].localAddress "\"\""
param **.sink_056.app[0].localPort 1100
param **.sink_056.app[0].replyDelay 0s
param **.sink_057.numApps 1
param **.sink_057.app[0].typename "\"TcpGenericServerApp\""
param **.sink_057.app[0].localAddress "\"\""
param **.sink_057.app[0].localPort 1100
param **.sink_057.app[0].replyDelay 0s
param **.sink_058.numApps 1
param **.sink_058.app[0].typename "\"TcpGenericServerApp\""
param **.sink_058.app[0].localAddress "\"\""
param **.sink_058.app[0].localPort 1100
param **.sink_058.app[0].replyDelay 0s
param **.sink_059.numApps 1
param **.sink_059.app[0].typename "\"TcpGenericServerApp\""
param **.sink_059.app[0].localAddress "\"\""
param **.sink_059.app[0].localPort 1100
param **.sink_059.app[0].replyDelay 0s
param **.sink_060.numApps 1
param **.sink_060.app[0].typename "\"TcpGenericServerApp\""
param **.sink_060.app[0].localAddress "\"\""
param **.sink_060.app[0].localPort 1100
param **.sink_060.app[0].replyDelay 0s
param **.sink_061.numApps 1
param **.sink_061.app[0].typename "\"TcpGenericServerApp\""
param **.sink_061.app[0].localAddress "\"\""
param **.sink_061.app[0].localPort 1100
param **.sink_061.app[0].replyDelay 0s
param **.sink_062.numApps 1
param **.sink_062.app[0].typename "\"TcpGenericServerApp\""
param **.sink_062.app[0].localAddress "\"\""
param **.sink_062.app[0].localPort 1100
param **.sink_062.app[0].replyDelay 0s
param **.sink_063.numApps 1
param **.sink_063.app[0].typename "\"TcpGenericServerApp\""
param **.sink_063.app[0].localAddress "\"\""
param **.sink_063.app[0].localPort 1100
param **.sink_063.app[0].replyDelay 0s
param **.sink_064.numApps 1
param **.sink_064.app[0].typename "\"TcpGenericServerApp\""
param **.sink_064.app[0].localAddress "\"\""
param **.sink_064.app[0].localPort 1100
param **.sink_064.app[0].replyDelay 0s
param **.sink_065.numApps 1
param **.sink_065.app[0].typename "\"TcpGenericServerApp\""
param **.sink_065.app[0].localAddress "\"\""
param **.sink_065.app[0].localPort 1100
param **.sink_065.app[0].replyDelay 0s
param **.sink_066.numApps 1
param **.sink_066.app[0].typename "\"TcpGenericServerApp\""
param **.sink_066.app[0].localAddress "\"\""
param **.sink_066.app[0].localPort 1100
param **.sink_066.app[0].replyDelay 0s
param **.sink_067.numApps 1
param **.sink_067.app[0].typename "\"TcpGenericServerApp\""
param **.sink_067.app[0].localAddress "\"\""
param **.sink_067.app[0].localPort 1100
param **.sink_067.app[0].replyDelay 0s
param **.sink_068.numApps 1
param **.sink_068.app[0].typename "\"TcpGenericServerApp\""
param **.sink_068.app[0].localAddress "\"\""
param **.sink_068.app[0].localPort 1100
param **.sink_068.app[0].replyDelay 0s
param **.sink_069.numApps 1
param **.sink_069.app[0].typename "\"TcpGenericServerApp\""
param **.sink_069.app[0].localAddress "\"\""
param **.sink_069.app[0].localPort 1100
param **.sink_069.app[0].replyDelay 0s
param **.sink_070.numApps 1
param **.sink_070.app[0].typename "\"TcpGenericServerApp\""
param **.sink_070.app[0].localAddress "\"\""
param **.sink_070.app[0].localPort 1100
param **.sink_070.app[0].replyDelay 0s
param **.sink_071.numApps 1
param **.sink_071.app[0].typename "\"TcpGenericServerApp\""
param **.sink_071.app[0].localAddress "\"\""
param **.sink_071.app[0].localPort 1100
param **.sink_071.app[0].replyDelay 0s
param **.sink_072.numApps 1
param **.sink_072.app[0].typename "\"TcpGenericServerApp\""
param **.sink_072.app[0].localAddress "\"\""
param **.sink_072.app[0].localPort 1100
param **.sink_072.app[0].replyDelay 0s
param **.sink_073.numApps 1
param **.sink_073.app[0].typename "\"TcpGenericServerApp\""
param **.sink_073.app[0].localAddress "\"\""
param **.sink_073.app[0].localPort 1100
param **.sink_073.app[0].replyDelay 0s
param **.sink_074.numApps 1
param **.sink_074.app[0].typename "\"TcpGenericServerApp\""
param **.sink_074.app[0].localAddress "\"\""
param **.sink_074.app[0].localPort 1100
param **.sink_074.app[0].replyDelay 0s
param **.sink_075.numApps 1
param **.sink_075.app[0].typename "\"TcpGenericServerApp\""
param **.sink_075.app[0].localAddress "\"\""
param **.sink_075.app[0].localPort 1100
param **.sink_075.app[0].replyDelay 0s
param **.sink_076.numApps 1
param **.sink_076.app[0].typename "\"TcpGenericServerApp\""
param **.sink_076.app[0].localAddress "\"\""
param **.sink_076.app[0].localPort 1100
param **.sink_076.app[0].replyDelay 0s
param **.sink_077.numApps 1
param **.sink_077.app[0].typename "\"TcpGenericServerApp\""
param **.sink_077.app[0].localAddress "\"\""
param **.sink_077.app[0].localPort 1100
param **.sink_077.app[0].replyDelay 0s
param **.sink_078.numApps 1
param **.sink_078.app[0].typename "\"TcpGenericServerApp\""
param **.sink_078.app[0].localAddress "\"\""
param **.sink_078.app[0].localPort 1100
param **.sink_078.app[0].replyDelay 0s
param **.sink_079.numApps 1
param **.sink_079.app[0].typename "\"TcpGenericServerApp\""
param **.sink_079.app[0].localAddress "\"\""
param **.sink_079.app[0].localPort 1100
param **.sink_079.app[0].replyDelay 0s
param **.sink_080.numApps 1
param **.sink_080.app[0].typename "\"TcpGenericServerApp\""
param **.sink_080.app[0].localAddress "\"\""
param **.sink_080.app[0].localPort 1100
param **.sink_080.app[0].replyDelay 0s
param **.sink_081.numApps 1
param **.sink_081.app[0].typename "\"TcpGenericServerApp\""
param **.sink_081.app[0].localAddress "\"\""
param **.sink_081.app[0].localPort 1100
param **.sink_081.app[0].replyDelay 0s
param **.sink_082.numApps 1
param **.sink_082.app[0].typename "\"TcpGenericServerApp\""
param **.sink_082.app[0].localAddress "\"\""
param **.sink_082.app[0].localPort 1100
param **.sink_082.app[0].replyDelay 0s
param **.sink_083.numApps 1
param **.sink_083.app[0].typename "\"TcpGenericServerApp\""
param **.sink_083.app[0].localAddress "\"\""
param **.sink_083.app[0].localPort 1100
param **.sink_083.app[0].replyDelay 0s
param **.sink_084.numApps 1
param **.sink_084.app[0].typename "\"TcpGenericServerApp\""
param **.sink_084.app[0].localAddress "\"\""
param **.sink_084.app[0].localPort 1100
param **.sink_084.app[0].replyDelay 0s
param **.sink_085.numApps 1
param **.sink_085.app[0].typename "\"TcpGenericServerApp\""
param **.sink_085.app[0].localAddress "\"\""
param **.sink_085.app[0].localPort 1100
param **.sink_085.app[0].replyDelay 0s
param **.sink_086.numApps 1
param **.sink_086.app[0].typename "\"TcpGenericServerApp\""
param **.sink_086.app[0].localAddress "\"\""
param **.sink_086.app[0].localPort 1100
param **.sink_086.app[0].replyDelay 0s
param **.sink_087.numApps 1
param **.sink_087.app[0].typename "\"TcpGenericServerApp\""
param **.sink_087.app[0].localAddress "\"\""
param **.sink_087.app[0].localPort 1100
param **.sink_087.app[0].replyDelay 0s
param **.sink_088.numApps 1
param **.sink_088.app[0].typename "\"TcpGenericServerApp\""
param **.sink_088.app[0].localAddress "\"\""
param **.sink_088.app[0].localPort 1100
param **.sink_088.app[0].replyDelay 0s
param **.sink_089.numApps 1
param **.sink_089.app[0].typename "\"TcpGenericServerApp\""
param **.sink_089.app[0].localAddress "\"\""
param **.sink_089.app[0].localPort 1100
param **.sink_089.app[0].replyDelay 0s
param **.sink_090.numApps 1
param **.sink_090.app[0].typename "\"TcpGenericServerApp\""
param **.sink_090.app[0].localAddress "\"\""
param **.sink_090.app[0].localPort 1100
param **.sink_090.app[0].replyDelay 0s
param **.sink_091.numApps 1
param **.sink_091.app[0].typename "\"TcpGenericServerApp\""
param **.sink_091.app[0].localAddress "\"\""
param **.sink_091.app[0].localPort 1100
param **.sink_091.app[0].replyDelay 0s
param **.sink_092.numApps 1
param **.sink_092.app[0].typename "\"TcpGenericServerApp\""
param **.sink_092.app[0].localAddress "\"\""
param **.sink_092.app[0].localPort 1100
param **.sink_092.app[0].replyDelay 0s
param **.sink_093.numApps 1
param **.sink_093.app[0].typename "\"TcpGenericServerApp\""
param **.sink_093.app[0].localAddress "\"\""
param **.sink_093.app[0].localPort 1100
param **.sink_093.app[0].replyDelay 0s
param **.source_000.numApps 1
param **.source_000.app[0].typename "\"TcpBasicClientApp\""
param **.source_000.app[0].localAddress "\"\""
param **.source_000.app[0].connectAddress "\"sink_000\""
param **.source_000.app[0].connectPort 1100
param **.source_000.app[0].startTime 0s
param **.source_000.app[0].idleInterval 1000s
param **.source_000.app[0].requestLength 1300B
param **.source_000.app[0].replyLength 20B
param **.source_000.app[0].thinkTime 0s
param **.source_000.app[0].numRequestsPerSession 79
param **.source_001.numApps 1
param **.source_001.app[0].typename "\"TcpBasicClientApp\""
param **.source_001.app[0].localAddress "\"\""
param **.source_001.app[0].connectAddress "\"sink_001\""
param **.source_001.app[0].connectPort 1100
param **.source_001.app[0].startTime 0s
param **.source_001.app[0].idleInterval 1000s
param **.source_001.app[0].requestLength 1300B
param **.source_001.app[0].replyLength 20B
param **.source_001.app[0].thinkTime 0s
param **.source_001.app[0].numRequestsPerSession 4
param **.source_002.numApps 1
param **.source_002.app[0].typename "\"TcpBasicClientApp\""
param **.source_002.app[0].localAddress "\"\""
param **.source_002.app[0].connectAddress "\"sink_002\""
param **.source_002.app[0].connectPort 1100
param **.source_002.app[0].startTime 0s
param **.source_002.app[0].idleInterval 1000s
param **.source_002.app[0].requestLength 1300B
param **.source_002.app[0].replyLength 20B
param **.source_002.app[0].thinkTime 0s
param **.source_002.app[0].numRequestsPerSession 11
param **.source_003.numApps 1
param **.source_003.app[0].typename "\"TcpBasicClientApp\""
param **.source_003.app[0].localAddress "\"\""
param **.source_003.app[0].connectAddress "\"sink_003\""
param **.source_003.app[0].connectPort 1100
param **.source_003.app[0].startTime 0s
param **.source_003.app[0].idleInterval 1000s
param **.source_003.app[0].requestLength 1300B
param **.source_003.app[0].replyLength 20B
param **.source_003.app[0].thinkTime 0s
param **.source_003.app[0].numRequestsPerSession 15
param **.source_004.numApps 1
param **.source_004.app[0].typename "\"TcpBasicClientApp\""
param **.source_004.app[0].localAddress "\"\""
param **.source_004.app[0].connectAddress "\"sink_004\""
param **.source_004.app[0].connectPort 1100
param **.source_004.app[0].startTime 0s
param **.source_004.app[0].idleInterval 1000s
param **.source_004.app[0].requestLength 1300B
param **.source_004.app[0].replyLength 20B
param **.source_004.app[0].thinkTime 0s
param **.source_004.app[0].numRequestsPerSession 150
param **.source_005.numApps 1
param **.source_005.app[0].typename "\"TcpBasicClientApp\""
param **.source_005.app[0].localAddress "\"\""
param **.source_005.app[0].connectAddress "\"sink_005\""
param **.source_005.app[0].connectPort 1100
param **.source_005.app[0].startTime 0s
param **.source_005.app[0].idleInterval 1000s
param **.source_005.app[0].requestLength 1300B
param **.source_005.app[0].replyLength 20B
param **.source_005.app[0].thinkTime 0s
param **.source_005.app[0].numRequestsPerSession 325
param **.source_006.numApps 1
param **.source_006.app[0].typename "\"TcpBasicClientApp\""
param **.source_006.app[0].localAddress "\"\""
param **.source_006.app[0].connectAddress "\"sink_006\""
param **.source_006.app[0].connectPort 1100
param **.source_006.app[0].startTime 0s
param **.source_006.app[0].idleInterval 1000s
param **.source_006.app[0].requestLength 1300B
param **.source_006.app[0].replyLength 20B
param **.source_006.app[0].thinkTime 0s
param **.source_006.app[0].numRequestsPerSession 3
param **.source_007.numApps 1
param **.source_007.app[0].typename "\"TcpBasicClientApp\""
param **.source_007.app[0].localAddress "\"\""
param **.source_007.app[0].connectAddress "\"sink_007\""
param **.source_007.app[0].connectPort 1100
param **.source_007.app[0].startTime 0s
param **.source_007.app[0].idleInterval 1000s
param **.source_007.app[0].requestLength 1300B
param **.source_007.app[0].replyLength 20B
param **.source_007.app[0].thinkTime 0s
param **.source_007.app[0].numRequestsPerSession 5
param **.source_008.numApps 1
param **.source_008.app[0].typename "\"TcpBasicClientApp\""
param **.source_008.app[0].localAddress "\"\""
param **.source_008.app[0].connectAddress "\"sink_008\""
param **.source_008.app[0].connectPort 1100
param **.source_008.app[0].startTime 0s
param **.source_008.app[0].idleInterval 1000s
param **.source_008.app[0].requestLength 1300B
param **.source_008.app[0].replyLength 20B
param **.source_008.app[0].thinkTime 0s
param **.source_008.app[0].numRequestsPerSession 6
param **.source_009.numApps 1
param **.source_009.app[0].typename "\"TcpBasicClientApp\""
param **.source_009.app[0].localAddress "\"\""
param **.source_009.app[0].connectAddress "\"sink_009\""
param **.source_009.app[0].connectPort 1100
param **.source_009.app[0].startTime 0s
param **.source_009.app[0].idleInterval 1000s
param **.source_009.app[0].requestLength 1300B
param **.source_009.app[0].replyLength 20B
param **.source_009.app[0].thinkTime 0s
param **.source_009.app[0].numRequestsPerSession 3
param **.source_010.numApps 1
param **.source_010.app[0].typename "\"TcpBasicClientApp\""
param **.source_010.app[0].localAddress "\"\""
param **.source_010.app[0].connectAddress "\"sink_010\""
param **.source_010.app[0].connectPort 1100
param **.source_010.app[0].startTime 0s
param **.source_010.app[0].idleInterval 1000s
param **.source_010.app[0].requestLength 1300B
param **.source_010.app[0].replyLength 20B
param **.source_010.app[0].thinkTime 0s
param **.source_010.app[0].numRequestsPerSession 98
param **.source_011.numApps 1
param **.source_011.app[0].typename "\"TcpBasicClientApp\""
param **.source_011.app[0].localAddress "\"\""
param **.source_011.app[0].connectAddress "\"sink_011\""
param **.source_011.app[0].connectPort 1100
param **.source_011.app[0].startTime 0s
param **.source_011.app[0].idleInterval 1000s
param **.source_011.app[0].requestLength 1300B
param **.source_011.app[0].replyLength 20B
param **.source_011.app[0].thinkTime 0s
param **.source_011.app[0].numRequestsPerSession 7
param **.source_012.numApps 1
param **.source_012.app[0].typename "\"TcpBasicClientApp\""
param **.source_012.app[0].localAddress "\"\""
param **.source_012.app[0].connectAddress "\"sink_012\""
param **.source_012.app[0].connectPort 1100
param **.source_012.app[0].startTime 0s
param **.source_012.app[0].idleInterval 1000s
param **.source_012.app[0].requestLength 1300B
param **.source_012.app[0].replyLength 20B
param **.source_012.app[0].thinkTime 0s
param **.source_012.app[0].numRequestsPerSession 69
param **.source_013.numApps 1
param **.source_013.app[0].typename "\"TcpBasicClientApp\""
param **.source_013.app[0].localAddress "\"\""
param **.source_013.app[0].connectAddress "\"sink_013\""
param **.source_013.app[0].connectPort 1100
param **.source_013.app[0].startTime 0s
param **.source_013.app[0].idleInterval 1000s
param **.source_013.app[0].requestLength 1300B
param **.source_013.app[0].replyLength 20B
param **.source_013.app[0].thinkTime 0s
param **.source_013.app[0].numRequestsPerSession 125
param **.source_014.numApps 1
param **.source_014.app[0].typename "\"TcpBasicClientApp\""
param **.source_014.app[0].localAddress "\"\""
param **.source_014.app[0].connectAddress "\"sink_014\""
param **.source_014.app[0].connectPort 1100
param **.source_014.app[0].startTime 0s
param **.source_014.app[0].idleInterval 1000s
param **.source_014.app[0].requestLength 1300B
param **.source_014.app[0].replyLength 20B
param **.source_014.app[0].thinkTime 0s
param **.source_014.app[0].numRequestsPerSession 645
param **.source_015.numApps 1
param **.source_015.app[0].typename "\"TcpBasicClientApp\""
param **.source_015.app[0].localAddress "\"\""
param **.source_015.app[0].connectAddress "\"sink_015\""
param **.source_015.app[0].connectPort 1100
param **.source_015.app[0].startTime 0s
param **.source_015.app[0].idleInterval 1000s
param **.source_015.app[0].requestLength 1300B
param **.source_015.app[0].replyLength 20B
param **.source_015.app[0].thinkTime 0s
param **.source_015.app[0].numRequestsPerSession 4
param **.source_016.numApps 1
param **.source_016.app[0].typename "\"TcpBasicClientApp\""
param **.source_016.app[0].localAddress "\"\""
param **.source_016.app[0].connectAddress "\"sink_016\""
param **.source_016.app[0].connectPort 1100
param **.source_016.app[0].startTime 0s
param **.source_016.app[0].idleInterval 1000s
param **.source_016.app[0].requestLength 1300B
param **.source_016.app[0].replyLength 20B
param **.source_016.app[0].thinkTime 0s
param **.source_016.app[0].numRequestsPerSession 162
param **.source_017.numApps 1
param **.source_017.app[0].typename "\"TcpBasicClientApp\""
param **.source_017.app[0].localAddress "\"\""
param **.source_017.app[0].connectAddress "\"sink_017\""
param **.source_017.app[0].connectPort 1100
param **.source_017.app[0].startTime 0s
param **.source_017.app[0].idleInterval 1000s
param **.source_017.app[0].requestLength 1300B
param **.source_017.app[0].replyLength 20B
param **.source_017.app[0].thinkTime 0s
param **.source_017.app[0].numRequestsPerSession 9
param **.source_018.numApps 1
param **.source_018.app[0].typename "\"TcpBasicClientApp\""
param **.source_018.app[0].localAddress "\"\""
param **.source_018.app[0].connectAddress "\"sink_018\""
param **.source_018.app[0].connectPort 1100
param **.source_018.app[0].startTime 0s
param **.source_018.app[0].idleInterval 1000s
param **.source_018.app[0].requestLength 1300B
param **.source_018.app[0].replyLength 20B
param **.source_018.app[0].thinkTime 0s
param **.source_018.app[0].numRequestsPerSession 24
param **.source_019.numApps 1
param **.source_019.app[0].typename "\"TcpBasicClientApp\""
param **.source_019.app[0].localAddress "\"\""
param **.source_019.app[0].connectAddress "\"sink_019\""
param **.source_019.app[0].connectPort 1100
param **.source_019.app[0].startTime 0s
param **.source_019.app[0].idleInterval 1000s
param **.source_019.app[0].requestLength 1300B
param **.source_019.app[0].replyLength 20B
param **.source_019.app[0].thinkTime 0s
param **.source_019.app[0].numRequestsPerSession 20
param **.source_020.numApps 1
param **.source_020.app[0].typename "\"TcpBasicClientApp\""
param **.source_020.app[0].localAddress "\"\""
param **.source_020.app[0].connectAddress "\"sink_020\""
param **.source_020.app[0].connectPort 1100
param **.source_020.app[0].startTime 0s
param **.source_020.app[0].idleInterval 1000s
param **.source_020.app[0].requestLength 1300B
param **.source_020.app[0].replyLength 20B
param **.source_020.app[0].thinkTime 0s
param **.source_020.app[0].numRequestsPerSession 11
param **.source_021.numApps 1
param **.source_021.app[0].typename "\"TcpBasicClientApp\""
param **.source_021.app[0].localAddress "\"\""
param **.source_021.app[0].connectAddress "\"sink_021\""
param **.source_021.app[0].connectPort 1100
param **.source_021.app[0].startTime 0s
param **.source_021.app[0].idleInterval 1000s
param **.source_021.app[0].requestLength 1300B
param **.source_021.app[0].replyLength 20B
param **.source_021.app[0].thinkTime 0s
param **.source_021.app[0].numRequestsPerSession 7
param **.source_022.numApps 1
param **.source_022.app[0].typename "\"TcpBasicClientApp\""
param **.source_022.app[0].localAddress "\"\""
param **.source_022.app[0].connectAddress "\"sink_022\""
param **.source_022.app[0].connectPort 1100
param **.source_022.app[0].startTime 0s
param **.source_022.app[0].idleInterval 1000s
param **.source_022.app[0].requestLength 1300B
param **.source_022.app[0].replyLength 20B
param **.source_022.app[0].thinkTime 0s
param **.source_022.app[0].numRequestsPerSession 21
param **.source_023.numApps 1
param **.source_023.app[0].typename "\"TcpBasicClientApp\""
param **.source_023.app[0].localAddress "\"\""
param **.source_023.app[0].connectAddress "\"sink_023\""
param **.source_023.app[0].connectPort 1100
param **.source_023.app[0].startTime 0s
param **.source_023.app[0].idleInterval 1000s
param **.source_023.app[0].requestLength 1300B
param **.source_023.app[0].replyLength 20B
param **.source_023.app[0].thinkTime 0s
param **.source_023.app[0].numRequestsPerSession 35
param **.source_024.numApps 1
param **.source_024.app[0].typename "\"TcpBasicClientApp\""
param **.source_024.app[0].localAddress "\"\""
param **.source_024.app[0].connectAddress "\"sink_024\""
param **.source_024.app[0].connectPort 1100
param **.source_024.app[0].startTime 0s
param **.source_024.app[0].idleInterval 1000s
param **.source_024.app[0].requestLength 1300B
param **.source_024.app[0].replyLength 20B
param **.source_024.app[0].thinkTime 0s
param **.source_024.app[0].numRequestsPerSession 55
param **.source_025.numApps 1
param **.source_025.app[0].typename "\"TcpBasicClientApp\""
param **.source_025.app[0].localAddress "\"\""
param **.source_025.app[0].connectAddress "\"sink_025\""
param **.source_025.app[0].connectPort 1100
param **.source_025.app[0].startTime 0s
param **.source_025.app[0].idleInterval 1000s
param **.source_025.app[0].requestLength 1300B
param **.source_025.app[0].replyLength 20B
param **.source_025.app[0].thinkTime 0s
param **.source_025.app[0].numRequestsPerSession 12
param **.source_026.numApps 1
param **.source_026.app[0].typename "\"TcpBasicClientApp\""
param **.source_026.app[0].localAddress "\"\""
param **.source_026.app[0].connectAddress "\"sink_026\""
param **.source_026.app[0].connectPort 1100
param **.source_026.app[0].startTime 0s
param **.source_026.app[0].idleInterval 1000s
param **.source_026.app[0].requestLength 1300B
param **.source_026.app[0].replyLength 20B
param **.source_026.app[0].thinkTime 0s
param **.source_026.app[0].numRequestsPerSession 39
param **.source_027.numApps 1
param **.source_027.app[0].typename "\"TcpBasicClientApp\""
param **.source_027.app[0].localAddress "\"\""
param **.source_027.app[0].connectAddress "\"sink_027\""
param **.source_027.app[0].connectPort 1100
param **.source_027.app[0].startTime 0s
param **.source_027.app[0].idleInterval 1000s
param **.source_027.app[0].requestLength 1300B
param **.source_027.app[0].replyLength 20B
param **.source_027.app[0].thinkTime 0s
param **.source_027.app[0].numRequestsPerSession 2
param **.source_028.numApps 1
param **.source_028.app[0].typename "\"TcpBasicClientApp\""
param **.source_028.app[0].localAddress "\"\""
param **.source_028.app[0].connectAddress "\"sink_028\""
param **.source_028.app[0].connectPort 1100
param **.source_028.app[0].startTime 0s
param **.source_028.app[0].idleInterval 1000s
param **.source_028.app[0].requestLength 1300B
param **.source_028.app[0].replyLength 20B
param **.source_028.app[0].thinkTime 0s
param **.source_028.app[0].numRequestsPerSession 2
param **.source_029.numApps 1
param **.source_029.app[0].typename "\"TcpBasicClientApp\""
param **.source_029.app[0].localAddress "\"\""
param **.source_029.app[0].connectAddress "\"sink_029\""
param **.source_029.app[0].connectPort 1100
param **.source_029.app[0].startTime 0s
param **.source_029.app[0].idleInterval 1000s
param **.source_029.app[0].requestLength 1300B
param **.source_029.app[0].replyLength 20B
param **.source_029.app[0].thinkTime 0s
param **.source_029.app[0].numRequestsPerSession 292
param **.source_030.numApps 1
param **.source_030.app[0].typename "\"TcpBasicClientApp\""
param **.source_030.app[0].localAddress "\"\""
param **.source_030.app[0].connectAddress "\"sink_030\""
param **.source_030.app[0].connectPort 1100
param **.source_030.app[0].startTime 0s
param **.source_030.app[0].idleInterval 1000s
param **.source_030.app[0].requestLength 1300B
param **.source_030.app[0].replyLength 20B
param **.source_030.app[0].thinkTime 0s
param **.source_030.app[0].numRequestsPerSession 2
param **.source_031.numApps 1
param **.source_031.app[0].typename "\"TcpBasicClientApp\""
param **.source_031.app[0].localAddress "\"\""
param **.source_031.app[0].connectAddress "\"sink_031\""
param **.source_031.app[0].connectPort 1100
param **.source_031.app[0].startTime 0s
param **.source_031.app[0].idleInterval 1000s
param **.source_031.app[0].requestLength 1300B
param **.source_031.app[0].replyLength 20B
param **.source_031.app[0].thinkTime 0s
param **.source_031.app[0].numRequestsPerSession 80
param **.source_032.numApps 1
param **.source_032.app[0].typename "\"TcpBasicClientApp\""
param **.source_032.app[0].localAddress "\"\""
param **.source_032.app[0].connectAddress "\"sink_032\""
param **.source_032.app[0].connectPort 1100
param **.source_032.app[0].startTime 0s
param **.source_032.app[0].idleInterval 1000s
param **.source_032.app[0].requestLength 1300B
param **.source_032.app[0].replyLength 20B
param **.source_032.app[0].thinkTime 0s
param **.source_032.app[0].numRequestsPerSession 13
param **.source_033.numApps 1
param **.source_033.app[0].typename "\"TcpBasicClientApp\""
param **.source_033.app[0].localAddress "\"\""
param **.source_033.app[0].connectAddress "\"sink_033\""
param **.source_033.app[0].connectPort 1100
param **.source_033.app[0].startTime 0s
param **.source_033.app[0].idleInterval 1000s
param **.source_033.app[0].requestLength 1300B
param **.source_033.app[0].replyLength 20B
param **.source_033.app[0].thinkTime 0s
param **.source_033.app[0].numRequestsPerSession 5
param **.source_034.numApps 1
param **.source_034.app[0].typename "\"TcpBasicClientApp\""
param **.source_034.app[0].localAddress "\"\""
param **.source_034.app[0].connectAddress "\"sink_034\""
param **.source_034.app[0].connectPort 1100
param **.source_034.app[0].startTime 0s
param **.source_034.app[0].idleInterval 1000s
param **.source_034.app[0].requestLength 1300B
param **.source_034.app[0].replyLength 20B
param **.source_034.app[0].thinkTime 0s
param **.source_034.app[0].numRequestsPerSession 6
param **.source_035.numApps 1
param **.source_035.app[0].typename "\"TcpBasicClientApp\""
param **.source_035.app[0].localAddress "\"\""
param **.source_035.app[0].connectAddress "\"sink_035\""
param **.source_035.app[0].connectPort 1100
param **.source_035.app[0].startTime 0s
param **.source_035.app[0].idleInterval 1000s
param **.source_035.app[0].requestLength 1300B
param **.source_035.app[0].replyLength 20B
param **.source_035.app[0].thinkTime 0s
param **.source_035.app[0].numRequestsPerSession 7
param **.source_036.numApps 1
param **.source_036.app[0].typename "\"TcpBasicClientApp\""
param **.source_036.app[0].localAddress "\"\""
param **.source_036.app[0].connectAddress "\"sink_036\""
param **.source_036.app[0].connectPort 1100
param **.source_036.app[0].startTime 0s
param **.source_036.app[0].idleInterval 1000s
param **.source_036.app[0].requestLength 1300B
param **.source_036.app[0].replyLength 20B
param **.source_036.app[0].thinkTime 0s
param **.source_036.app[0].numRequestsPerSession 1
param **.source_037.numApps 1
param **.source_037.app[0].typename "\"TcpBasicClientApp\""
param **.source_037.app[0].localAddress "\"\""
param **.source_037.app[0].connectAddress "\"sink_037\""
param **.source_037.app[0].connectPort 1100
param **.source_037.app[0].startTime 0s
param **.source_037.app[0].idleInterval 1000s
param **.source_037.app[0].requestLength 1300B
param **.source_037.app[0].replyLength 20B
param **.source_037.app[0].thinkTime 0s
param **.source_037.app[0].numRequestsPerSession 2
param **.source_038.numApps 1
param **.source_038.app[0].typename "\"TcpBasicClientApp\""
param **.source_038.app[0].localAddress "\"\""
param **.source_038.app[0].connectAddress "\"sink_038\""
param **.source_038.app[0].connectPort 1100
param **.source_038.app[0].startTime 0s
param **.source_038.app[0].idleInterval 1000s
param **.source_038.app[0].requestLength 1300B
param **.source_038.app[0].replyLength 20B
param **.source_038.app[0].thinkTime 0s
param **.source_038.app[0].numRequestsPerSession 30
param **.source_039.numApps 1
param **.source_039.app[0].typename "\"TcpBasicClientApp\""
param **.source_039.app[0].localAddress "\"\""
param **.source_039.app[0].connectAddress "\"sink_039\""
param **.source_039.app[0].connectPort 1100
param **.source_039.app[0].startTime 0s
param **.source_039.app[0].idleInterval 1000s
param **.source_039.app[0].requestLength 1300B
param **.source_039.app[0].replyLength 20B
param **.source_039.app[0].thinkTime 0s
param **.source_039.app[0].numRequestsPerSession 2
param **.source_040.numApps 1
param **.source_040.app[0].typename "\"TcpBasicClientApp\""
param **.source_040.app[0].localAddress "\"\""
param **.source_040.app[0].connectAddress "\"sink_040\""
param **.source_040.app[0].connectPort 1100
param **.source_040.app[0].startTime 0s
param **.source_040.app[0].idleInterval 1000s
param **.source_040.app[0].requestLength 1300B
param **.source_040.app[0].replyLength 20B
param **.source_040.app[0].thinkTime 0s
param **.source_040.app[0].numRequestsPerSession 707
param **.source_041.numApps 1
param **.source_041.app[0].typename "\"TcpBasicClientApp\""
param **.source_041.app[0].localAddress "\"\""
param **.source_041.app[0].connectAddress "\"sink_041\""
param **.source_041.app[0].connectPort 1100
param **.source_041.app[0].startTime 0s
param **.source_041.app[0].idleInterval 1000s
param **.source_041.app[0].requestLength 1300B
param **.source_041.app[0].replyLength 20B
param **.source_041.app[0].thinkTime 0s
param **.source_041.app[0].numRequestsPerSession 114
param **.source_042.numApps 1
param **.source_042.app[0].typename "\"TcpBasicClientApp\""
param **.source_042.app[0].localAddress "\"\""
param **.source_042.app[0].connectAddress "\"sink_042\""
param **.source_042.app[0].connectPort 1100
param **.source_042.app[0].startTime 0s
param **.source_042.app[0].idleInterval 1000s
param **.source_042.app[0].requestLength 1300B
param **.source_042.app[0].replyLength 20B
param **.source_042.app[0].thinkTime 0s
param **.source_042.app[0].numRequestsPerSession 2
param **.source_043.numApps 1
param **.source_043.app[0].typename "\"TcpBasicClientApp\""
param **.source_043.app[0].localAddress "\"\""
param **.source_043.app[0].connectAddress "\"sink_043\""
param **.source_043.app[0].connectPort 1100
param **.source_043.app[0].startTime 0s
param **.source_043.app[0].idleInterval 1000s
param **.source_043.app[0].requestLength 1300B
param **.source_043.app[0].replyLength 20B
param **.source_043.app[0].thinkTime 0s
param **.source_043.app[0].numRequestsPerSession 26
param **.source_044.numApps 1
param **.source_044.app[0].typename "\"TcpBasicClientApp\""
param **.source_044.app[0].localAddress "\"\""
param **.source_044.app[0].connectAddress "\"sink_044\""
param **.source_044.app[0].connectPort 1100
param **.source_044.app[0].startTime 0s
param **.source_044.app[0].idleInterval 1000s
param **.source_044.app[0].requestLength 1300B
param **.source_044.app[0].replyLength 20B
param **.source_044.app[0].thinkTime 0s
param **.source_044.app[0].numRequestsPerSession 14
param **.source_045.numApps 1
param **.source_045.app[0].typename "\"TcpBasicClientApp\""
param **.source_045.app[0].localAddress "\"\""
param **.source_045.app[0].connectAddress "\"sink_045\""
param **.source_045.app[0].connectPort 1100
param **.source_045.app[0].startTime 0s
param **.source_045.app[0].idleInterval 1000s
param **.source_045.app[0].requestLength 1300B
param **.source_045.app[0].replyLength 20B
param **.source_045.app[0].thinkTime 0s
param **.source_045.app[0].numRequestsPerSession 479
param **.source_046.numApps 1
param **.source_046.app[0].typename "\"TcpBasicClientApp\""
param **.source_046.app[0].localAddress "\"\""
param **.source_046.app[0].connectAddress "\"sink_046\""
param **.source_046.app[0].connectPort 1100
param **.source_046.app[0].startTime 0s
param **.source_046.app[0].idleInterval 1000s
param **.source_046.app[0].requestLength 1300B
param **.source_046.app[0].replyLength 20B
param **.source_046.app[0].thinkTime 0s
param **.source_046.app[0].numRequestsPerSession 53
param **.source_047.numApps 1
param **.source_047.app[0].typename "\"TcpBasicClientApp\""
param **.source_047.app[0].localAddress "\"\""
param **.source_047.app[0].connectAddress "\"sink_047\""
param **.source_047.app[0].connectPort 1100
param **.source_047.app[0].startTime 0s
param **.source_047.app[0].idleInterval 1000s
param **.source_047.app[0].requestLength 1300B
param **.source_047.app[0].replyLength 20B
param **.source_047.app[0].thinkTime 0s
param **.source_047.app[0].numRequestsPerSession 84
param **.source_048.numApps 1
param **.source_048.app[0].typename "\"TcpBasicClientApp\""
param **.source_048.app[0].localAddress "\"\""
param **.source_048.app[0].connectAddress "\"sink_048\""
param **.source_048.app[0].connectPort 1100
param **.source_048.app[0].startTime 0s
param **.source_048.app[0].idleInterval 1000s
param **.source_048.app[0].requestLength 1300B
param **.source_048.app[0].replyLength 20B
param **.source_048.app[0].thinkTime 0s
param **.source_048.app[0].numRequestsPerSession 126
param **.source_049.numApps 1
param **.source_049.app[0].typename "\"TcpBasicClientApp\""
param **.source_049.app[0].localAddress "\"\""
param **.source_049.app[0].connectAddress "\"sink_049\""
param **.source_049.app[0].connectPort 1100
param **.source_049.app[0].startTime 0s
param **.source_049.app[0].idleInterval 1000s
param **.source_049.app[0].requestLength 1300B
param **.source_049.app[0].replyLength 20B
param **.source_049.app[0].thinkTime 0s
param **.source_049.app[0].numRequestsPerSession 238
param **.source_050.numApps 1
param **.source_050.app[0].typename "\"TcpBasicClientApp\""
param **.source_050.app[0].localAddress "\"\""
param **.source_050.app[0].connectAddress "\"sink_050\""
param **.source_050.app[0].connectPort 1100
param **.source_050.app[0].startTime 0s
param **.source_050.app[0].idleInterval 1000s
param **.source_050.app[0].requestLength 1300B
param **.source_050.app[0].replyLength 20B
param **.source_050.app[0].thinkTime 0s
param **.source_050.app[0].numRequestsPerSession 2
param **.source_051.numApps 1
param **.source_051.app[0].typename "\"TcpBasicClientApp\""
param **.source_051.app[0].localAddress "\"\""
param **.source_051.app[0].connectAddress "\"sink_051\""
param **.source_051.app[0].connectPort 1100
param **.source_051.app[0].startTime 0s
param **.source_051.app[0].idleInterval 1000s
param **.source_051.app[0].requestLength 1300B
param **.source_051.app[0].replyLength 20B
param **.source_051.app[0].thinkTime 0s
param **.source_051.app[0].numRequestsPerSession 2
param **.source_052.numApps 1
param **.source_052.app[0].typename "\"TcpBasicClientApp\""
param **.source_052.app[0].localAddress "\"\""
param **.source_052.app[0].connectAddress "\"sink_052\""
param **.source_052.app[0].connectPort 1100
param **.source_052.app[0].startTime 0s
param **.source_052.app[0].idleInterval 1000s
param **.source_052.app[0].requestLength 1300B
param **.source_052.app[0].replyLength 20B
param **.source_052.app[0].thinkTime 0s
param **.source_052.app[0].numRequestsPerSession 404
param **.source_053.numApps 1
param **.source_053.app[0].typename "\"TcpBasicClientApp\""
param **.source_053.app[0].localAddress "\"\""
param **.source_053.app[0].connectAddress "\"sink_053\""
param **.source_053.app[0].connectPort 1100
param **.source_053.app[0].startTime 0s
param **.source_053.app[0].idleInterval 1000s
param **.source_053.app[0].requestLength 1300B
param **.source_053.app[0].replyLength 20B
param **.source_053.app[0].thinkTime 0s
param **.source_053.app[0].numRequestsPerSession 9
param **.source_054.numApps 1
param **.source_054.app[0].typename "\"TcpBasicClientApp\""
param **.source_054.app[0].localAddress "\"\""
param **.source_054.app[0].connectAddress "\"sink_054\""
param **.source_054.app[0].connectPort 1100
param **.source_054.app[0].startTime 0s
param **.source_054.app[0].idleInterval 1000s
param **.source_054.app[0].requestLength 1300B
param **.source_054.app[0].replyLength 20B
param **.source_054.app[0].thinkTime 0s
param **.source_054.app[0].numRequestsPerSession 3
param **.source_055.numApps 1
param **.source_055.app[0].typename "\"TcpBasicClientApp\""
param **.source_055.app[0].localAddress "\"\""
param **.source_055.app[0].connectAddress "\"sink_055\""
param **.source_055.app[0].connectPort 1100
param **.source_055.app[0].startTime 0s
param **.source_055.app[0].idleInterval 1000s
param **.source_055.app[0].requestLength 1300B
param **.source_055.app[0].replyLength 20B
param **.source_055.app[0].thinkTime 0s
param **.source_055.app[0].numRequestsPerSession 759
param **.source_056.numApps 1
param **.source_056.app[0].typename "\"TcpBasicClientApp\""
param **.source_056.app[0].localAddress "\"\""
param **.source_056.app[0].connectAddress "\"sink_056\""
param **.source_056.app[0].connectPort 1100
param **.source_056.app[0].startTime 0s
param **.source_056.app[0].idleInterval 1000s
param **.source_056.app[0].requestLength 1300B
param **.source_056.app[0].replyLength 20B
param **.source_056.app[0].thinkTime 0s
param **.source_056.app[0].numRequestsPerSession 2
param **.source_057.numApps 1
param **.source_057.app[0].typename "\"TcpBasicClientApp\""
param **.source_057.app[0].localAddress "\"\""
param **.source_057.app[0].connectAddress "\"sink_057\""
param **.source_057.app[0].connectPort 1100
param **.source_057.app[0].startTime 0s
param **.source_057.app[0].idleInterval 1000s
param **.source_057.app[0].requestLength 1300B
param **.source_057.app[0].replyLength 20B
param **.source_057.app[0].thinkTime 0s
param **.source_057.app[0].numRequestsPerSession 25
param **.source_058.numApps 1
param **.source_058.app[0].typename "\"TcpBasicClientApp\""
param **.source_058.app[0].localAddress "\"\""
param **.source_058.app[0].connectAddress "\"sink_058\""
param **.source_058.app[0].connectPort 1100
param **.source_058.app[0].startTime 0s
param **.source_058.app[0].idleInterval 1000s
param **.source_058.app[0].requestLength 1300B
param **.source_058.app[0].replyLength 20B
param **.source_058.app[0].thinkTime 0s
param **.source_058.app[0].numRequestsPerSession 9
param **.source_059.numApps 1
param **.source_059.app[0].typename "\"TcpBasicClientApp\""
param **.source_059.app[0].localAddress "\"\""
param **.source_059.app[0].connectAddress "\"sink_059\""
param **.source_059.app[0].connectPort 1100
param **.source_059.app[0].startTime 0s
param **.source_059.app[0].idleInterval 1000s
param **.source_059.app[0].requestLength 1300B
param **.source_059.app[0].replyLength 20B
param **.source_059.app[0].thinkTime 0s
param **.source_059.app[0].numRequestsPerSession 26
param **.source_060.numApps 1
param **.source_060.app[0].typename "\"TcpBasicClientApp\""
param **.source_060.app[0].localAddress "\"\""
param **.source_060.app[0].connectAddress "\"sink_060\""
param **.source_060.app[0].connectPort 1100
param **.source_060.app[0].startTime 0s
param **.source_060.app[0].idleInterval 1000s
param **.source_060.app[0].requestLength 1300B
param **.source_060.app[0].replyLength 20B
param **.source_060.app[0].thinkTime 0s
param **.source_060.app[0].numRequestsPerSession 148
param **.source_061.numApps 1
param **.source_061.app[0].typename "\"TcpBasicClientApp\""
param **.source_061.app[0].localAddress "\"\""
param **.source_061.app[0].connectAddress "\"sink_061\""
param **.source_061.app[0].connectPort 1100
param **.source_061.app[0].startTime 0s
param **.source_061.app[0].idleInterval 1000s
param **.source_061.app[0].requestLength 1300B
param **.source_061.app[0].replyLength 20B
param **.source_061.app[0].thinkTime 0s
param **.source_061.app[0].numRequestsPerSession 264
param **.source_062.numApps 1
param **.source_062.app[0].typename "\"TcpBasicClientApp\""
param **.source_062.app[0].localAddress "\"\""
param **.source_062.app[0].connectAddress "\"sink_062\""
param **.source_062.app[0].connectPort 1100
param **.source_062.app[0].startTime 0s
param **.source_062.app[0].idleInterval 1000s
param **.source_062.app[0].requestLength 1300B
param **.source_062.app[0].replyLength 20B
param **.source_062.app[0].thinkTime 0s
param **.source_062.app[0].numRequestsPerSession 3
param **.source_063.numApps 1
param **.source_063.app[0].typename "\"TcpBasicClientApp\""
param **.source_063.app[0].localAddress "\"\""
param **.source_063.app[0].connectAddress "\"sink_063\""
param **.source_063.app[0].connectPort 1100
param **.source_063.app[0].startTime 0s
param **.source_063.app[0].idleInterval 1000s
param **.source_063.app[0].requestLength 1300B
param **.source_063.app[0].replyLength 20B
param **.source_063.app[0].thinkTime 0s
param **.source_063.app[0].numRequestsPerSession 11
param **.source_064.numApps 1
param **.source_064.app[0].typename "\"TcpBasicClientApp\""
param **.source_064.app[0].localAddress "\"\""
param **.source_064.app[0].connectAddress "\"sink_064\""
param **.source_064.app[0].connectPort 1100
param **.source_064.app[0].startTime 0s
param **.source_064.app[0].idleInterval 1000s
param **.source_064.app[0].requestLength 1300B
param **.source_064.app[0].replyLength 20B
param **.source_064.app[0].thinkTime 0s
param **.source_064.app[0].numRequestsPerSession 287
param **.source_065.numApps 1
param **.source_065.app[0].typename "\"TcpBasicClientApp\""
param **.source_065.app[0].localAddress "\"\""
param **.source_065.app[0].connectAddress "\"sink_065\""
param **.source_065.app[0].connectPort 1100
param **.source_065.app[0].startTime 0s
param **.source_065.app[0].idleInterval 1000s
param **.source_065.app[0].requestLength 1300B
param **.source_065.app[0].replyLength 20B
param **.source_065.app[0].thinkTime 0s
param **.source_065.app[0].numRequestsPerSession 19
param **.source_066.numApps 1
param **.source_066.app[0].typename "\"TcpBasicClientApp\""
param **.source_066.app[0].localAddress "\"\""
param **.source_066.app[0].connectAddress "\"sink_066\""
param **.source_066.app[0].connectPort 1100
param **.source_066.app[0].startTime 0s
param **.source_066.app[0].idleInterval 1000s
param **.source_066.app[0].requestLength 1300B
param **.source_066.app[0].replyLength 20B
param **.source_066.app[0].thinkTime 0s
param **.source_066.app[0].numRequestsPerSession 4
param **.source_067.numApps 1
param **.source_067.app[0].typename "\"TcpBasicClientApp\""
param **.source_067.app[0].localAddress "\"\""
param **.source_067.app[0].connectAddress "\"sink_067\""
param **.source_067.app[0].connectPort 1100
param **.source_067.app[0].startTime 0s
param **.source_067.app[0].idleInterval 1000s
param **.source_067.app[0].requestLength 1300B
param **.source_067.app[0].replyLength 20B
param **.source_067.app[0].thinkTime 0s
param **.source_067.app[0].numRequestsPerSession 75
param **.source_068.numApps 1
param **.source_068.app[0].typename "\"TcpBasicClientApp\""
param **.source_068.app[0].localAddress "\"\""
param **.source_068.app[0].connectAddress "\"sink_068\""
param **.source_068.app[0].connectPort 1100
param **.source_068.app[0].startTime 0s
param **.source_068.app[0].idleInterval 1000s
param **.source_068.app[0].requestLength 1300B
param **.source_068.app[0].replyLength 20B
param **.source_068.app[0].thinkTime 0s
param **.source_068.app[0].numRequestsPerSession 35
param **.source_069.numApps 1
param **.source_069.app[0].typename "\"TcpBasicClientApp\""
param **.source_069.app[0].localAddress "\"\""
param **.source_069.app[0].connectAddress "\"sink_069\""
param **.source_069.app[0].connectPort 1100
param **.source_069.app[0].startTime 0s
param **.source_069.app[0].idleInterval 1000s
param **.source_069.app[0].requestLength 1300B
param **.source_069.app[0].replyLength 20B
param **.source_069.app[0].thinkTime 0s
param **.source_069.app[0].numRequestsPerSession 11
param **.source_070.numApps 1
param **.source_070.app[0].typename "\"TcpBasicClientApp\""
param **.source_070.app[0].localAddress "\"\""
param **.source_070.app[0].connectAddress "\"sink_070\""
param **.source_070.app[0].connectPort 1100
param **.source_070.app[0].startTime 0s
param **.source_070.app[0].idleInterval 1000s
param **.source_070.app[0].requestLength 1300B
param **.source_070.app[0].replyLength 20B
param **.source_070.app[0].thinkTime 0s
param **.source_070.app[0].numRequestsPerSession 17
param **.source_071.numApps 1
param **.source_071.app[0].typename "\"TcpBasicClientApp\""
param **.source_071.app[0].localAddress "\"\""
param **.source_071.app[0].connectAddress "\"sink_071\""
param **.source_071.app[0].connectPort 1100
param **.source_071.app[0].startTime 0s
param **.source_071.app[0].idleInterval 1000s
param **.source_071.app[0].requestLength 1300B
param **.source_071.app[0].replyLength 20B
param **.source_071.app[0].thinkTime 0s
param **.source_071.app[0].numRequestsPerSession 9
param **.source_072.numApps 1
param **.source_072.app[0].typename "\"TcpBasicClientApp\""
param **.source_072.app[0].localAddress "\"\""
param **.source_072.app[0].connectAddress "\"sink_072\""
param **.source_072.app[0].connectPort 1100
param **.source_072.app[0].startTime 0s
param **.source_072.app[0].idleInterval 1000s
param **.source_072.app[0].requestLength 1300B
param **.source_072.app[0].replyLength 20B
param **.source_072.app[0].thinkTime 0s
param **.source_072.app[0].numRequestsPerSession 4
param **.source_073.numApps 1
param **.source_073.app[0].typename "\"TcpBasicClientApp\""
param **.source_073.app[0].localAddress "\"\""
param **.source_073.app[0].connectAddress "\"sink_073\""
param **.source_073.app[0].connectPort 1100
param **.source_073.app[0].startTime 0s
param **.source_073.app[0].idleInterval 1000s
param **.source_073.app[0].requestLength 1300B
param **.source_073.app[0].replyLength 20B
param **.source_073.app[0].thinkTime 0s
param **.source_073.app[0].numRequestsPerSession 5
param **.source_074.numApps 1
param **.source_074.app[0].typename "\"TcpBasicClientApp\""
param **.source_074.app[0].localAddress "\"\""
param **.source_074.app[0].connectAddress "\"sink_074\""
param **.source_074.app[0].connectPort 1100
param **.source_074.app[0].startTime 0s
param **.source_074.app[0].idleInterval 1000s
param **.source_074.app[0].requestLength 1300B
param **.source_074.app[0].replyLength 20B
param **.source_074.app[0].thinkTime 0s
param **.source_074.app[0].numRequestsPerSession 19
param **.source_075.numApps 1
param **.source_075.app[0].typename "\"TcpBasicClientApp\""
param **.source_075.app[0].localAddress "\"\""
param **.source_075.app[0].connectAddress "\"sink_075\""
param **.source_075.app[0].connectPort 1100
param **.source_075.app[0].startTime 0s
param **.source_075.app[0].idleInterval 1000s
param **.source_075.app[0].requestLength 1300B
param **.source_075.app[0].replyLength 20B
param **.source_075.app[0].thinkTime 0s
param **.source_075.app[0].numRequestsPerSession 2
param **.source_076.numApps 1
param **.source_076.app[0].typename "\"TcpBasicClientApp\""
param **.source_076.app[0].localAddress "\"\""
param **.source_076.app[0].connectAddress "\"sink_076\""
param **.source_076.app[0].connectPort 1100
param **.source_076.app[0].startTime 0s
param **.source_076.app[0].idleInterval 1000s
param **.source_076.app[0].requestLength 1300B
param **.source_076.app[0].replyLength 20B
param **.source_076.app[0].thinkTime 0s
param **.source_076.app[0].numRequestsPerSession 573
param **.source_077.numApps 1
param **.source_077.app[0].typename "\"TcpBasicClientApp\""
param **.source_077.app[0].localAddress "\"\""
param **.source_077.app[0].connectAddress "\"sink_077\""
param **.source_077.app[0].connectPort 1100
param **.source_077.app[0].startTime 0s
param **.source_077.app[0].idleInterval 1000s
param **.source_077.app[0].requestLength 1300B
param **.source_077.app[0].replyLength 20B
param **.source_077.app[0].thinkTime 0s
param **.source_077.app[0].numRequestsPerSession 33
param **.source_078.numApps 1
param **.source_078.app[0].typename "\"TcpBasicClientApp\""
param **.source_078.app[0].localAddress "\"\""
param **.source_078.app[0].connectAddress "\"sink_078\""
param **.source_078.app[0].connectPort 1100
param **.source_078.app[0].startTime 0s
param **.source_078.app[0].idleInterval 1000s
param **.source_078.app[0].requestLength 1300B
param **.source_078.app[0].replyLength 20B
param **.source_078.app[0].thinkTime 0s
param **.source_078.app[0].numRequestsPerSession 54
param **.source_079.numApps 1
param **.source_079.app[0].typename "\"TcpBasicClientApp\""
param **.source_079.app[0].localAddress "\"\""
param **.source_079.app[0].connectAddress "\"sink_079\""
param **.source_079.app[0].connectPort 1100
param **.source_079.app[0].startTime 0s
param **.source_079.app[0].idleInterval 1000s
param **.source_079.app[0].requestLength 1300B
param **.source_079.app[0].replyLength 20B
param **.source_079.app[0].thinkTime 0s
param **.source_079.app[0].numRequestsPerSession 9
param **.source_080.numApps 1
param **.source_080.app[0].typename "\"TcpBasicClientApp\""
param **.source_080.app[0].localAddress "\"\""
param **.source_080.app[0].connectAddress "\"sink_080\""
param **.source_080.app[0].connectPort 1100
param **.source_080.app[0].startTime 0s
param **.source_080.app[0].idleInterval 1000s
param **.source_080.app[0].requestLength 1300B
param **.source_080.app[0].replyLength 20B
param **.source_080.app[0].thinkTime 0s
param **.source_080.app[0].numRequestsPerSession 3
param **.source_081.numApps 1
param **.source_081.app[0].typename "\"TcpBasicClientApp\""
param **.source_081.app[0].localAddress "\"\""
param **.source_081.app[0].connectAddress "\"sink_081\""
param **.source_081.app[0].connectPort 1100
param **.source_081.app[0].startTime 0s
param **.source_081.app[0].idleInterval 1000s
param **.source_081.app[0].requestLength 1300B
param **.source_081.app[0].replyLength 20B
param **.source_081.app[0].thinkTime 0s
param **.source_081.app[0].numRequestsPerSession 113
param **.source_082.numApps 1
param **.source_082.app[0].typename "\"TcpBasicClientApp\""
param **.source_082.app[0].localAddress "\"\""
param **.source_082.app[0].connectAddress "\"sink_082\""
param **.source_082.app[0].connectPort 1100
param **.source_082.app[0].startTime 0s
param **.source_082.app[0].idleInterval 1000s
param **.source_082.app[0].requestLength 1300B
param **.source_082.app[0].replyLength 20B
param **.source_082.app[0].thinkTime 0s
param **.source_082.app[0].numRequestsPerSession 171
param **.source_083.numApps 1
param **.source_083.app[0].typename "\"TcpBasicClientApp\""
param **.source_083.app[0].localAddress "\"\""
param **.source_083.app[0].connectAddress "\"sink_083\""
param **.source_083.app[0].connectPort 1100
param **.source_083.app[0].startTime 0s
param **.source_083.app[0].idleInterval 1000s
param **.source_083.app[0].requestLength 1300B
param **.source_083.app[0].replyLength 20B
param **.source_083.app[0].thinkTime 0s
param **.source_083.app[0].numRequestsPerSession 390
param **.source_084.numApps 1
param **.source_084.app[0].typename "\"TcpBasicClientApp\""
param **.source_084.app[0].localAddress "\"\""
param **.source_084.app[0].connectAddress "\"sink_084\""
param **.source_084.app[0].connectPort 1100
param **.source_084.app[0].startTime 0s
param **.source_084.app[0].idleInterval 1000s
param **.source_084.app[0].requestLength 1300B
param **.source_084.app[0].replyLength 20B
param **.source_084.app[0].thinkTime 0s
param **.source_084.app[0].numRequestsPerSession 8
param **.source_085.numApps 1
param **.source_085.app[0].typename "\"TcpBasicClientApp\""
param **.source_085.app[0].localAddress "\"\""
param **.source_085.app[0].connectAddress "\"sink_085\""
param **.source_085.app[0].connectPort 1100
param **.source_085.app[0].startTime 0s
param **.source_085.app[0].idleInterval 1000s
param **.source_085.app[0].requestLength 1300B
param **.source_085.app[0].replyLength 20B
param **.source_085.app[0].thinkTime 0s
param **.source_085.app[0].numRequestsPerSession 17
param **.source_086.numApps 1
param **.source_086.app[0].typename "\"TcpBasicClientApp\""
param **.source_086.app[0].localAddress "\"\""
param **.source_086.app[0].connectAddress "\"sink_086\""
param **.source_086.app[0].connectPort 1100
param **.source_086.app[0].startTime 0s
param **.source_086.app[0].idleInterval 1000s
param **.source_086.app[0].requestLength 1300B
param **.source_086.app[0].replyLength 20B
param **.source_086.app[0].thinkTime 0s
param **.source_086.app[0].numRequestsPerSession 265
param **.source_087.numApps 1
param **.source_087.app[0].typename "\"TcpBasicClientApp\""
param **.source_087.app[0].localAddress "\"\""
param **.source_087.app[0].connectAddress "\"sink_087\""
param **.source_087.app[0].connectPort 1100
param **.source_087.app[0].startTime 0s
param **.source_087.app[0].idleInterval 1000s
param **.source_087.app[0].requestLength 1300B
param **.source_087.app[0].replyLength 20B
param **.source_087.app[0].thinkTime 0s
param **.source_087.app[0].numRequestsPerSession 4
param **.source_088.numApps 1
param **.source_088.app[0].typename "\"TcpBasicClientApp\""
param **.source_088.app[0].localAddress "\"\""
param **.source_088.app[0].connectAddress "\"sink_088\""
param **.source_088.app[0].connectPort 1100
param **.source_088.app[0].startTime 0s
param **.source_088.app[0].idleInterval 1000s
param **.source_088.app[0].requestLength 1300B
param **.source_088.app[0].replyLength 20B
param **.source_088.app[0].thinkTime 0s
param **.source_088.app[0].numRequestsPerSession 13
param **.source_089.numApps 1
param **.source_089.app[0].typename "\"TcpBasicClientApp\""
param **.source_089.app[0].localAddress "\"\""
param **.source_089.app[0].connectAddress "\"sink_089\""
param **.source_089.app[0].connectPort 1100
param **.source_089.app[0].startTime 0s
param **.source_089.app[0].idleInterval 1000s
param **.source_089.app[0].requestLength 1300B
param **.source_089.app[0].replyLength 20B
param **.source_089.app[0].thinkTime 0s
param **.source_089.app[0].numRequestsPerSession 11
param **.source_090.numApps 1
param **.source_090.app[0].typename "\"TcpBasicClientApp\""
param **.source_090.app[0].localAddress "\"\""
param **.source_090.app[0].connectAddress "\"sink_090\""
param **.source_090.app[0].connectPort 1100
param **.source_090.app[0].startTime 0s
param **.source_090.app[0].idleInterval 1000s
param **.source_090.app[0].requestLength 1300B
param **.source_090.app[0].replyLength 20B
param **.source_090.app[0].thinkTime 0s
param **.source_090.app[0].numRequestsPerSession 455
param **.source_091.numApps 1
param **.source_091.app[0].typename "\"TcpBasicClientApp\""
param **.source_091.app[0].localAddress "\"\""
param **.source_091.app[0].connectAddress "\"sink_091\""
param **.source_091.app[0].connectPort 1100
param **.source_091.app[0].startTime 0s
param **.source_091.app[0].idleInterval 1000s
param **.source_091.app[0].requestLength 1300B
param **.source_091.app[0].replyLength 20B
param **.source_091.app[0].thinkTime 0s
param **.source_091.app[0].numRequestsPerSession 6
param **.source_092.numApps 1
param **.source_092.app[0].typename "\"TcpBasicClientApp\""
param **.source_092.app[0].localAddress "\"\""
param **.source_092.app[0].connectAddress "\"sink_092\""
param **.source_092.app[0].connectPort 1100
param **.source_092.app[0].startTime 0s
param **.source_092.app[0].idleInterval 1000s
param **.source_092.app[0].requestLength 1300B
param **.source_092.app[0].replyLength 20B
param **.source_092.app[0].thinkTime 0s
param **.source_092.app[0].numRequestsPerSession 8
param **.source_093.numApps 1
param **.source_093.app[0].typename "\"TcpBasicClientApp\""
param **.source_093.app[0].localAddress "\"\""
param **.source_093.app[0].connectAddress "\"sink_093\""
param **.source_093.app[0].connectPort 1100
param **.source_093.app[0].startTime 0s
param **.source_093.app[0].idleInterval 1000s
param **.source_093.app[0].requestLength 1300B
param **.source_093.app[0].replyLength 20B
param **.source_093.app[0].thinkTime 0s
param **.source_093.app[0].numRequestsPerSession 757
param **.tcp.mss 1400
param **.tcp.tcpAlgorithmClass "\"TcpReno\""
param **.tcp.crcMode "\"computed\""
param **.app[*].dataTransferMode "\"object\""

statistic Jellyfish_24_8_7_8_per00001__jelly_faults_seed38.sink_000.app[0] endToEndDelay:histogram
field count 79
field mean 0.0087101518987342
field stddev 0.0018987347952742
field min 0.007282
field max 0.016785
field sum 0.688102
field sqrsum 0.00627467806
attr interpolationmode none
attr source dataAge(packetReceived)
attr title "end-to-end delay, histogram"
attr unit s
bin	-inf	0
bin	0.0048	0
bin	0.005	0
bin	0.0052	0
bin	0.0054	0
bin	0.0056	0
bin	0.0058	0
bin	0.006	0
bin	0.0062	0
bin	0.0064	0
bin	0.0066	0
bin	0.0068	0
bin	0.007	0
bin	0.0072	12
bin	0.0074	2
bin	0.0076	2
bin	0.0078	18
bin	0.008	0
bin	0.0082	17
bin	0.0084	8
bin	0.0086	2
bin	0.0088	2
bin	0.009	1
bin	0.0092	3
bin	0.0094	1
bin	0.0096	3
bin	0.0098	1
bin	0.01	0
bin	0.0102	0
bin	0.0104	0
bin	0.0106	1
bin	0.0108	0
bin	0.011	0
bin	0.0112	0
bin	0.0114	0
bin	0.0116	0
bin	0.0118	1
bin	0.012	0
bin	0.0122	0
bin	0.0124	0
bin	0.0126	0
bin	0.0128	0
bin	0.013	2
bin	0.0132	0
bin	0.0134	0
bin	0.0136	0
bin	0.0138	0
bin	0.014	0
bin	0.0142	0
bin	0.0144	0
bin	0.0146	0
bin	0.0148	0
bin	0.015	0
bin	0.0152	0
bin	0.0154	0
bin	0.0156	0
bin	0.0158	0
bin	0.016	1
bin	0.0162	1
bin	0.0164	0
bin	0.0166	1
bin	0.0168	0
bin	0.017	0
bin	0.0172	0
bin	0.0174	0
bin	0.0176	0
bin	0.0178	0
bin	0.018	0
bin	0.0182	0
bin	0.0184	0
bin	0.0186	0
bin	0.0188	0
bin	0.019	0
bin	0.0192	0
statistic Jellyfish_24_8_7_8_per00001__jelly_faults_seed38.sink_000.app[0] endToEndDelay:weightedHistogram
field count 79
field mean 0.0087101518987342
field stddev 0.0018987347952742
field min 0.007282
field max 0.016785
field weights 821600
field weightedSum 7156.2608
field sqrSumWeights 8544640000
field weightedSqrSum 65.256651824
attr interpolationmode none
attr source dataAge(packetReceived)
attr title "end-to-end delay, weightedHistogram"
attr unit s
bin	-inf	0
bin	0.0048	0
bin	0.005	0
bin	0.0052	0
bin	0.0054	0
bin	0.0056	0
bin	0.0058	0
bin	0.006	0
bin	0.0062	0
bin	0.0064	0
bin	0.0066	0
bin	0.0068	0
bin	0.007	0
bin	0.0072	124800
bin	0.0074	20800
bin	0.0076	20800
bin	0.0078	187200
bin	0.008	0
bin	0.0082	176800
bin	0.0084	83200
bin	0.0086	20800
bin	0.0088	20800
bin	0.009	10400
bin	0.0092	31200
bin	0.0094	10400
bin	0.0096	31200
bin	0.0098	10400
bin	0.01	0
bin	0.0102	0
bin	0.0104	0
bin	0.0106	10400
bin	0.0108	0
bin	0.011	0
bin	0.0112	0
bin	0.0114	0
bin	0.0116	0
bin	0.0118	10400
bin	0.012	0
bin	0.0122	0
bin	0.0124	0
bin	0.0126	0
bin	0.0128	0
bin	0.013	20800
bin	0.0132	0
bin	0.0134	0
bin	0.0136	0
bin	0.0138	0
bin	0.014	0
bin	0.0142	0
bin	0.0144	0
bin	0.0146	0
bin	0.0148	0
bin	0.015	0
bin	0.0152	0
bin	0.0154	0
bin	0.0156	0
bin	0.0158	0
bin	0.016	10400
bin	0.0162	10400
bin	0.0164	0
bin	0.0166	10400
bin	0.0168	0
bin	0.017	0
bin	0.0172	0
bin	0.0174	0
bin	0.0176	0
bin	0.0178	0
bin	0.018	0
bin	0.0182	0
bin	0.0184	0
bin	0.0186	0
bin	0.0188	0
bin	0.019	0
bin	0.0192	0
statistic Jellyfish_24_8_7_8_per00001__jelly_faults_seed38.sink_001.app[0] endToEndDelay:histogram
field count 4
field mean 0.0152535
field stddev 0.002020717446849
field min 0.01256
field max 0.01724
field sum 0.061014
field sqrsum 0.000942926946
attr interpolationmode none
attr source dataAge(packetReceived)
attr title "end-to-end delay, histogram"
attr unit s
bin	-inf	0
bin	0.0113	0
bin	0.0114	0
bin	0.0115	0
bin	0.0116	0
bin	0.0117	0
bin	0.0118	0
bin	0.0119	0
bin	0.012	0
bin	0.0121	0
bin	0.0122	0
bin	0.0123	0
bin	0.0124	0
bin	0.0125	1
bin	0.0126	0
bin	0.0127	0
bin	0.0128	0
bin	0.0129	0
bin	0.013	0
bin	0.0131	0
bin	0.0132	0
bin	0.0133	0
bin	0.0134	0
bin	0.0135	0
bin	0.0136	0
bin	0.0137	0
bin	0.0138	0
bin	0.0139	0
bin	0.014	0
bin	0.0141	0
bin	0.0142	0
bin	0.0143	0
bin	0.0144	0
bin	0.0145	0
bin	0.0146	0
bin	0.0147	0
bin	0.0148	0
bin	0.0149	1
bin	0.015	0
bin	0.0151	0
bin	0.0152	0
bin	0.0153	0
bin	0.0154	0
bin	0.0155	0
bin	0.0156	0
bin	0.0157	0
bin	0.0158	0
bin	0.0159	0
bin	0.016	0
bin	0.0161	0
bin	0.0162	1
bin	0.0163	0
bin	0.0164	0
bin	0.0165	0
bin	0.0166	0
bin	0.0167	0
bin	0.0168	0
bin	0.0169	0
bin	0.017	0
bin	0.0171	0
bin	0.0172	1
bin	0.0173	0
bin	0.0174	0
bin	0.0175	0
bin	0.0176	0
bin	0.0177	0
bin	0.0178	0
bin	0.0179	0
bin	0.018	0
bin	0.0181	0
bin	0.0182	0
bin	0.0183	0
bin	0.0184	0
bin	0.0185	0
statistic Jellyfish_24_8_7_8_per00001__jelly_faults_seed38.sink_001.app[0] endToEndDelay:weightedHistogram
field count 4
field mean 0.0152535
field stddev 0.002020717446849
field min 0.01256
field max 0.01724
field weights 41600
field weightedSum 634.5456
field sqrSumWeights 432640000
field weightedSqrSum 9.8064402384
attr interpolationmode none
attr source dataAge(packetReceived)
attr title "end-to-end delay, weightedHistogram"
attr unit s
bin	-inf	0
bin	0.0113	0
bin	0.0114	0
bin	0.0115	0
bin	0.0116	0
bin	0.0117	0
bin	0.0118	0
bin	0.0119	0
bin	0.012	0
bin	0.0121	0
bin	0.0122	0
bin	0.0123	0
bin	0.0124	0
bin	0.0125	10400
bin	0.0126	0
bin	0.0127	0
bin	0.0128	0
bin	0.0129	0
bin	0.013	0
bin	0.0131	0
bin	0.0132	0
bin	0.0133	0
bin	0.0134	0
bin	0.0135	0
bin	0.0136	0
bin	0.0137	0
bin	0.0138	0
bin	0.0139	0
bin	0.014	0
bin	0.0141	0
bin	0.0142	0
bin	0.0143	0
bin	0.0144	0
bin	0.0145	0
bin	0.0146	0
bin	0.0147	0
bin	0.0148	0
bin	0.0149	10400
bin	0.015	0
bin	0.0151	0
bin	0.0152	0
bin	0.0153	0
bin	0.0154	0
bin	0.0155	0
bin	0.0156	0
bin	0.0157	0
bin	0.0158	0
bin	0.0159	0
bin	0.016	0
bin	0.0161	0
bin	0.0162	10400
bin	0.0163	0
bin	0.0164	0
bin	0.0165	0
bin	0.0166	0
bin	0.0167	0
bin	0.0168	0
bin	0.0169	0
bin	0.017	0
bin	0.0171	0
bin	0.0172	10400
bin	0.0173	0
bin	0.0174	0
bin	0.0175	0
bin	0.0176	0
bin	0.0177	0
bin	0.0178	0
bin	0.0179	0
bin	0.018	0
bin	0.0181	0
bin	0.0182	0
bin	0.0183	0
bin	0.0184	0
bin	0.0185	0
statistic Jellyfish_24_8_7_8_per00001__jelly_faults_seed38.sink_002.app[0] endToEndDelay:histogram
field count 11
field mean 0.012469727272727
field stddev 0.0038806651515148
field min 0.007282
field max 0.018941
field sum 0.137167
field sqrsum 0.001861030701
attr interpolationmode none
attr source dataAge(packetReceived)
attr title "end-to-end delay, histogram"
attr unit s
bin	-inf	0
bin	0.0042	0
bin	0.0044	0
bin	0.0046	0
bin	0.0048	0
bin	0.005	0
bin	0.0052	0
bin	0.0054	0
bin	0.0056	0
bin	0.0058	0
bin	0.006	0
bin	0.0062	0
bin	0.0064	0
bin	0.0066	0
bin	0.0068	0
bin	0.007	0
bin	0.0072	1
bin	0.0074	0
bin	0.0076	0
bin	0.0078	0
bin	0.008	0
bin	0.0082	0
bin	0.0084	0
bin	0.0086	0
bin	0.0088	0
bin	0.009	0
bin	0.0092	1
bin	0.0094	0
bin	0.0096	0
bin	0.0098	3
bin	0.01	0
bin	0.0102	0
bin	0.0104	0
bin	0.0106	1
bin	0.0108	0
bin	0.011	0
bin	0.0112	0
bin	0.0114	0
bin	0.0116	0
bin	0.0118	0
bin	0.012	0
bin	0.0122	1
bin	0.0124	0
bin	0.0126	0
bin	0.0128	0
bin	0.013	0
bin	0.0132	0
bin	0.0134	0
bin	0.0136	0
bin	0.0138	0
bin	0.014	0
bin	0.0142	0
bin	0.0144	0
bin	0.0146	0
bin	0.0148	1
bin	0.015	0
bin	0.0152	0
bin	0.0154	0
bin	0.0156	0
bin	0.0158	0
bin	0.016	0
bin	0.0162	0
bin	0.0164	1
bin	0.0166	0
bin	0.0168	0
bin	0.017	0
bin	0.0172	0
bin	0.0174	1
bin	0.0176	0
bin	0.0178	0
bin	0.018	0
bin	0.0182	0
bin	0.0184	0
bin	0.0186	0
bin	0.0188	1
bin	0.019	0
bin	0.0192	0
bin	0.0194	0
bin	0.0196	0
bin	0.0198	0
bin	0.02	0
bin	0.0202	0
bin	0.0204	0
bin	0.0206	0
bin	0.0208	0
bin	0.021	0
bin	0.0212	0
bin	0.0214	0
bin	0.0216	0
bin	0.0218	0
bin	0.022	0
statistic Jellyfish_24_8_7_8_per00001__jelly_faults_seed38.sink_002.app[0] endToEndDelay:weightedHistogram
field count 11
field mean 0.012469727272727
field stddev 0.0038806651515149
field min 0.007282
field max 0.018941
field weights 114400
field weightedSum 1426.5368
field sqrSumWeights 1189760000
field weightedSqrSum 19.3547192904
attr interpolationmode none
attr source dataAge(packetReceived)
attr title "end-to-end delay, weightedHistogram"
attr unit s
bin	-inf	0
bin	0.0042	0
bin	0.0044	0
bin	0.0046	0
bin	0.0048	0
bin	0.005	0
bin	0.0052	0
bin	0.0054	0
bin	0.0056	0
bin	0.0058	0
bin	0.006	0
bin	0.0062	0
bin	0.0064	0
bin	0.0066	0
bin	0.0068	0
bin	0.007	0
bin	0.0072	10400
bin	0.0074	0
bin	0.0076	0
bin	0.0078	0
bin	0.008	0
bin	0.0082	0
bin	0.0084	0
bin	0.0086	0
bin	0.0088	0
bin	0.009	0
bin	0.0092	10400
bin	0.0094	0
bin	0.0096	0
bin	0.0098	31200
bin	0.01	0
bin	0.0102	0
bin	0.0104	0
bin	0.0106	10400
bin	0.0108	0
bin	0.011	0
bin	0.0112	0
bin	0.0114	0
bin	0.0116	0
bin	0.0118	0
bin	0.012	0
bin	0.0122	10400
bin	0.0124	0
bin	0.0126	0
bin	0.0128	0
bin	0.013	0
bin	0.0132	0
bin	0.0134	0
bin	0.0136	0
bin	0.0138	0
bin	0.014	0
bin	0.0142	0
bin	0.0144	0
bin	0.0146	0
bin	0.0148	10400
bin	0.015	0
bin	0.0152	0
bin	0.0154	0
bin	0.0156	0
bin	0.0158	0
bin	0.016	0
bin	0.0162	0
bin	0.0164	10400
bin	0.0166	0
bin	0.0168	0
bin	0.017	0
bin	0.0172	0
bin	0.0174	10400
bin	0.0176	0
bin	0.0178	0
bin	0.018	0
bin	0.0182	0
bin	0.0184	0
bin	0.0186	0
bin	0.0188	10400
bin	0.019	0
bin	0.0192	0
bin	0.0194	0
bin	0.0196	0
bin	0.0198	0
bin	0.02	0
bin	0.0202	0
bin	0.0204	0
bin	0.0206	0
bin	0.0208	0
bin	0.021	0
bin	0.0212	0
bin	0.0214	0
bin	0.0216	0
bin	0.0218	0
bin	0.022	0
statistic Jellyfish_24_8_7_8_per00001__jelly_faults_seed38.sink_003.app[0] endToEndDelay:histogram
field count 15
field mean 0.011732666666667
field stddev 0.0034108776974067
field min 0.007994
field max 0.018587
field sum 0.17599
field sqrsum 0.00222770922
attr interpolationmode none
attr source dataAge(packetReceived)
attr title "end-to-end delay, histogram"
attr unit s
bin	-inf	0
bin	0.0052	0
bin	0.0054	0
bin	0.0056	0
bin	0.0058	0
bin	0.006	0
bin	0.0062	0
bin	0.0064	0
bin	0.0066	0
bin	0.0068	0
bin	0.007	0
bin	0.0072	0
bin	0.0074	0
bin	0.0076	0
bin	0.0078	1
bin	0.008	1
bin	0.0082	0
bin	0.0084	0
bin	0.0086	1
bin	0.0088	0
bin	0.009	2
bin	0.0092	0
bin	0.0094	1
bin	0.0096	0
bin	0.0098	0
bin	0.01	0
bin	0.0102	1
bin	0.0104	0
bin	0.0106	0
bin	0.0108	1
bin	0.011	1
bin	0.0112	0
bin	0.0114	0
bin	0.0116	1
bin	0.0118	0
bin	0.012	0
bin	0.0122	0
bin	0.0124	0
bin	0.0126	0
bin	0.0128	0
bin	0.013	0
bin	0.0132	1
bin	0.0134	0
bin	0.0136	0
bin	0.0138	0
bin	0.014	0
bin	0.0142	0
bin	0.0144	0
bin	0.0146	0
bin	0.0148	0
bin	0.015	0
bin	0.0152	1
bin	0.0154	0
bin	0.0156	0
bin	0.0158	0
bin	0.016	1
bin	0.0162	1
bin	0.0164	0
bin	0.0166	0
bin	0.0168	0
bin	0.017	0
bin	0.0172	0
bin	0.0174	0
bin	0.0176	0
bin	0.0178	0
bin	0.018	0
bin	0.0182	0
bin	0.0184	1
bin	0.0186	0
bin	0.0188	0
bin	0.019	0
bin	0.0192	0
bin	0.0194	0
bin	0.0196	0
bin	0.0198	0
bin	0.02	0
bin	0.0202	0
bin	0.0204	0
bin	0.0206	0
bin	0.0208	0
bin	0.021	0
bin	0.0212	0
bin	0.0214	0
statistic Jellyfish_24_8_7_8_per00001__jelly_faults_seed38.sink_003.app[0] endToEndDelay:weightedHistogram
field count 15
field mean 0.011732666666667
field stddev 0.0034108776974067
field min 0.007994
field max 0.018587
field weights 156000
field weightedSum 1830.296
field sqrSumWeights 1622400000
field weightedSqrSum 23.168175888
attr interpolationmode none
attr source dataAge(packetReceived)
attr title "end-to-end delay, weightedHistogram"
attr unit s
bin	-inf	0
bin	0.0052	0
bin	0.0054	0
bin	0.0056	0
bin	0.0058	0
bin	0.006	0
bin	0.0062	0
bin	0.0064	0
bin	0.0066	0
bin	0.0068	0
bin	0.007	0
bin	0.0072	0
bin	0.0074	0
bin	0.0076	0
bin	0.0078	10400
bin	0.008	10400
bin	0.0082	0
bin	0.0084	0
bin	0.0086	10400
bin	0.0088	0
bin	0.009	20800
bin	0.0092	0
bin	0.0094	10400
bin	0.0096	0
bin	0.0098	0
bin	0.01	0
bin	0.0102	10400
bin	0.0104	0
bin	0.0106	0
bin	0.0108	10400
bin	0.011	10400
bin	0.0112	0
bin	0.0114	0
bin	0.0116	10400
bin	0.0118	0
bin	0.012	0
bin	0.0122	0
bin	0.0124	0
bin	0.0126	0
bin	0.0128	0
bin	0.013	0
bin	0.0132	10400
bin	0.0134	0
bin	0.0136	0
bin	0.0138	0
bin	0.014	0
bin	0.0142	0
bin	0.0144	0
bin	0.0146	0
bin	0.0148	0
bin	0.015	0
bin	0.0152	10400
bin	0.0154	0
bin	0.0156	0
bin	0.0158	0
bin	0.016	10400
bin	0.0162	10400
bin	0.0164	0
bin	0.0166	0
bin	0.0168	0
bin	0.017	0
bin	0.0172	0
bin	0.0174	0
bin	0.0176	0
bin	0.0178	0
bin	0.018	0
bin	0.0182	0
bin	0.0184	10400
bin	0.0186	0
bin	0.0188	0
bin	0.019	0
bin	0.0192	0
bin	0.0194	0
bin	0.0196	0
bin	0.0198	0
bin	0.02	0
bin	0.0202	0
bin	0.0204	0
bin	0.0206	0
bin	0.0208	0
bin	0.021	0
bin	0.0212	0
[...]
bin	0.21	0
bin	0.22	0
bin	0.23	0
bin	0.24	0
bin	0.25	0
bin	0.26	0
bin	0.27	0
bin	0.28	0
bin	0.29	0
bin	0.3	0
bin	0.31	0
bin	0.32	0
bin	0.33	0
bin	0.34	0
bin	0.35	0
bin	0.36	0
bin	0.37	0
bin	0.38	0
bin	0.39	0
bin	0.4	0
bin	0.41	0
bin	0.42	0
bin	0.43	0
bin	0.44	0
bin	0.45	0
bin	0.46	0
bin	0.47	0
bin	0.48	0
bin	0.49	0
bin	0.5	0
bin	0.51	0
scalar Jellyfish_24_8_7_8_per00001__jelly_faults_seed38.source_087.app[0] numActiveSessions:max 1
attr interpolationmode sample-hold
attr source sum(connect)
attr title "number of active sessions, max"
scalar Jellyfish_24_8_7_8_per00001__jelly_faults_seed38.source_087.app[0] numActiveSessions:timeavg 4.3419e-05
attr interpolationmode sample-hold
attr source sum(connect)
attr title "number of active sessions, timeavg"
statistic Jellyfish_24_8_7_8_per00001__jelly_faults_seed38.source_088.app[0] endToEndDelay:histogram
field count 13
field mean 0.00071823076923077
field stddev 1.164870412072e-05
field min 0.000715
field max 0.000757
field sum 0.009337
field sqrsum 6.707749e-06
attr interpolationmode none
attr source dataAge(packetReceived)
attr title "end-to-end delay, histogram"
attr unit s
bin	-inf	0
bin	0.000704	0
bin	0.000705	0
bin	0.000706	0
bin	0.000707	0
bin	0.000708	0
bin	0.000709	0
bin	0.00071	0
bin	0.000711	0
bin	0.000712	0
bin	0.000713	0
bin	0.000714	12
bin	0.000715	0
bin	0.000716	0
bin	0.000717	0
bin	0.000718	0
bin	0.000719	0
bin	0.00072	0
bin	0.000721	0
bin	0.000722	0
bin	0.000723	0
bin	0.000724	0
bin	0.000725	0
bin	0.000726	0
bin	0.000727	0
bin	0.000728	0
bin	0.000729	0
bin	0.00073	0
bin	0.000731	0
bin	0.000732	0
bin	0.000733	0
bin	0.000734	0
bin	0.000735	0
bin	0.000736	0
bin	0.000737	0
bin	0.000738	0
bin	0.000739	0
bin	0.00074	0
bin	0.000741	0
bin	0.000742	0
bin	0.000743	0
bin	0.000744	0
bin	0.000745	0
bin	0.000746	0
bin	0.000747	0
bin	0.000748	0
bin	0.000749	0
bin	0.00075	0
bin	0.000751	0
bin	0.000752	0
bin	0.000753	0
bin	0.000754	0
bin	0.000755	0
bin	0.000756	1
bin	0.000757	0
bin	0.000758	0
bin	0.000759	0
bin	0.00076	0
bin	0.000761	0
bin	0.000762	0
bin	0.000763	0
bin	0.000764	0
bin	0.000765	0
bin	0.000766	0
bin	0.000767	0
bin	0.000768	0
statistic Jellyfish_24_8_7_8_per00001__jelly_faults_seed38.source_088.app[0] endToEndDelay:weightedHistogram
field count 13
field mean 0.00071823076923077
field stddev 1.1648704120735e-05
field min 0.000715
field max 0.000757
field weights 2080
field weightedSum 1.49392
field sqrSumWeights 332800
field weightedSqrSum 0.00107323984
attr interpolationmode none
attr source dataAge(packetReceived)
attr title "end-to-end delay, weightedHistogram"
attr unit s
bin	-inf	0
bin	0.000704	0
bin	0.000705	0
bin	0.000706	0
bin	0.000707	0
bin	0.000708	0
bin	0.000709	0
bin	0.00071	0
bin	0.000711	0
bin	0.000712	0
bin	0.000713	0
bin	0.000714	1920
bin	0.000715	0
bin	0.000716	0
bin	0.000717	0
bin	0.000718	0
bin	0.000719	0
bin	0.00072	0
bin	0.000721	0
bin	0.000722	0
bin	0.000723	0
bin	0.000724	0
bin	0.000725	0
bin	0.000726	0
bin	0.000727	0
bin	0.000728	0
bin	0.000729	0
bin	0.00073	0
bin	0.000731	0
bin	0.000732	0
bin	0.000733	0
bin	0.000734	0
bin	0.000735	0
bin	0.000736	0
bin	0.000737	0
bin	0.000738	0
bin	0.000739	0
bin	0.00074	0
bin	0.000741	0
bin	0.000742	0
bin	0.000743	0
bin	0.000744	0
bin	0.000745	0
bin	0.000746	0
bin	0.000747	0
bin	0.000748	0
bin	0.000749	0
bin	0.00075	0
bin	0.000751	0
bin	0.000752	0
bin	0.000753	0
bin	0.000754	0
bin	0.000755	0
bin	0.000756	160
bin	0.000757	0
bin	0.000758	0
bin	0.000759	0
bin	0.00076	0
bin	0.000761	0
bin	0.000762	0
bin	0.000763	0
bin	0.000764	0
bin	0.000765	0
bin	0.000766	0
bin	0.000767	0
bin	0.000768	0
scalar Jellyfish_24_8_7_8_per00001__jelly_faults_seed38.source_088.app[0] numActiveSessions:max 1
attr interpolationmode sample-hold
attr source sum(connect)
attr title "number of active sessions, max"
scalar Jellyfish_24_8_7_8_per00001__jelly_faults_seed38.source_088.app[0] numActiveSessions:timeavg 0.0001109
attr interpolationmode sample-hold
attr source sum(connect)
attr title "number of active sessions, timeavg"
statistic Jellyfish_24_8_7_8_per00001__jelly_faults_seed38.source_089.app[0] endToEndDelay:histogram
field count 11
field mean 0.0010494545454545
field stddev 0.00037050650834671
field min 0.000882
field max 0.001873
field sum 0.011544
field sqrsum 1.3487654e-05
attr interpolationmode none
attr source dataAge(packetReceived)
attr title "end-to-end delay, histogram"
attr unit s
bin	-inf	0
bin	0.00062	0
bin	0.00064	0
bin	0.00066	0
bin	0.00068	0
bin	0.0007	0
bin	0.00072	0
bin	0.00074	0
bin	0.00076	0
bin	0.00078	0
bin	0.0008	0
bin	0.00082	0
bin	0.00084	0
bin	0.00086	0
bin	0.00088	9
bin	0.0009	0
bin	0.00092	0
bin	0.00094	0
bin	0.00096	0
bin	0.00098	0
bin	0.001	0
bin	0.00102	0
bin	0.00104	0
bin	0.00106	0
bin	0.00108	0
bin	0.0011	0
bin	0.00112	0
bin	0.00114	0
bin	0.00116	0
bin	0.00118	0
bin	0.0012	0
bin	0.00122	0
bin	0.00124	0
bin	0.00126	0
bin	0.00128	0
bin	0.0013	0
bin	0.00132	0
bin	0.00134	0
bin	0.00136	0
bin	0.00138	0
bin	0.0014	0
bin	0.00142	0
bin	0.00144	0
bin	0.00146	0
bin	0.00148	0
bin	0.0015	0
bin	0.00152	0
bin	0.00154	0
bin	0.00156	0
bin	0.00158	0
bin	0.0016	0
bin	0.00162	0
bin	0.00164	0
bin	0.00166	0
bin	0.00168	0
bin	0.0017	1
bin	0.00172	0
bin	0.00174	0
bin	0.00176	0
bin	0.00178	0
bin	0.0018	0
bin	0.00182	0
bin	0.00184	0
bin	0.00186	1
bin	0.00188	0
bin	0.0019	0
bin	0.00192	0
bin	0.00194	0
bin	0.00196	0
bin	0.00198	0
bin	0.002	0
bin	0.00202	0
bin	0.00204	0
bin	0.00206	0
bin	0.00208	0
bin	0.0021	0
bin	0.00212	0
bin	0.00214	0
statistic Jellyfish_24_8_7_8_per00001__jelly_faults_seed38.source_089.app[0] endToEndDelay:weightedHistogram
field count 11
field mean 0.0010494545454545
field stddev 0.00037050650834671
field min 0.000882
field max 0.001873
field weights 1760
field weightedSum 1.84704
field sqrSumWeights 281600
field weightedSqrSum 0.00215802464
attr interpolationmode none
attr source dataAge(packetReceived)
attr title "end-to-end delay, weightedHistogram"
attr unit s
bin	-inf	0
bin	0.00062	0
bin	0.00064	0
bin	0.00066	0
bin	0.00068	0
bin	0.0007	0
bin	0.00072	0
bin	0.00074	0
bin	0.00076	0
bin	0.00078	0
bin	0.0008	0
bin	0.00082	0
bin	0.00084	0
bin	0.00086	0
bin	0.00088	1440
bin	0.0009	0
bin	0.00092	0
bin	0.00094	0
bin	0.00096	0
bin	0.00098	0
bin	0.001	0
bin	0.00102	0
bin	0.00104	0
bin	0.00106	0
bin	0.00108	0
bin	0.0011	0
bin	0.00112	0
bin	0.00114	0
bin	0.00116	0
bin	0.00118	0
bin	0.0012	0
bin	0.00122	0
bin	0.00124	0
bin	0.00126	0
bin	0.00128	0
bin	0.0013	0
bin	0.00132	0
bin	0.00134	0
bin	0.00136	0
bin	0.00138	0
bin	0.0014	0
bin	0.00142	0
bin	0.00144	0
bin	0.00146	0
bin	0.00148	0
bin	0.0015	0
bin	0.00152	0
bin	0.00154	0
bin	0.00156	0
bin	0.00158	0
bin	0.0016	0
bin	0.00162	0
bin	0.00164	0
bin	0.00166	0
bin	0.00168	0
bin	0.0017	160
bin	0.00172	0
bin	0.00174	0
bin	0.00176	0
bin	0.00178	0
bin	0.0018	0
bin	0.00182	0
bin	0.00184	0
bin	0.00186	160
bin	0.00188	0
bin	0.0019	0
bin	0.00192	0
bin	0.00194	0
bin	0.00196	0
bin	0.00198	0
bin	0.002	0
bin	0.00202	0
bin	0.00204	0
bin	0.00206	0
bin	0.00208	0
bin	0.0021	0
bin	0.00212	0
bin	0.00214	0
scalar Jellyfish_24_8_7_8_per00001__jelly_faults_seed38.source_089.app[0] numActiveSessions:max 1
attr interpolationmode sample-hold
attr source sum(connect)
attr title "number of active sessions, max"
scalar Jellyfish_24_8_7_8_per00001__jelly_faults_seed38.source_089.app[0] numActiveSessions:timeavg 0.000113971
attr interpolationmode sample-hold
attr source sum(connect)
attr title "number of active sessions, timeavg"
statistic Jellyfish_24_8_7_8_per00001__jelly_faults_seed38.source_090.app[0] endToEndDelay:histogram
field count 455
field mean 0.00090701538461538
field stddev 0.00015983353739027
field min 0.000882
field max 0.002451
field sum 0.412692
field sqrsum 0.000385916222
attr interpolationmode none
attr source dataAge(packetReceived)
attr title "end-to-end delay, histogram"
attr unit s
bin	-inf	0
bin	0.00045	0
bin	0.0005	0
bin	0.00055	0
bin	0.0006	0
bin	0.00065	0
bin	0.0007	0
bin	0.00075	0
bin	0.0008	0
bin	0.00085	435
bin	0.0009	8
bin	0.00095	0
bin	0.001	1
bin	0.00105	0
bin	0.0011	0
bin	0.00115	0
bin	0.0012	0
bin	0.00125	0
bin	0.0013	1
bin	0.00135	0
bin	0.0014	2
bin	0.00145	0
bin	0.0015	0
bin	0.00155	0
bin	0.0016	0
bin	0.00165	0
bin	0.0017	0
bin	0.00175	0
bin	0.0018	0
bin	0.00185	2
bin	0.0019	0
bin	0.00195	2
bin	0.002	1
bin	0.00205	1
bin	0.0021	1
bin	0.00215	0
bin	0.0022	0
bin	0.00225	0
bin	0.0023	0
bin	0.00235	0
bin	0.0024	0
bin	0.00245	1
bin	0.0025	0
bin	0.00255	0
bin	0.0026	0
bin	0.00265	0
bin	0.0027	0
bin	0.00275	0
bin	0.0028	0
bin	0.00285	0
statistic Jellyfish_24_8_7_8_per00001__jelly_faults_seed38.source_090.app[0] endToEndDelay:weightedHistogram
field count 455
field mean 0.00090701538461539
field stddev 0.00015983353739028
field min 0.000882
field max 0.002451
field weights 72800
field weightedSum 66.03072
field sqrSumWeights 11648000
field weightedSqrSum 0.061746595520001
attr interpolationmode none
attr source dataAge(packetReceived)
attr title "end-to-end delay, weightedHistogram"
attr unit s
bin	-inf	0
bin	0.00045	0
bin	0.0005	0
bin	0.00055	0
bin	0.0006	0
bin	0.00065	0
bin	0.0007	0
bin	0.00075	0
bin	0.0008	0
bin	0.00085	69600
bin	0.0009	1280
bin	0.00095	0
bin	0.001	160
bin	0.00105	0
bin	0.0011	0
bin	0.00115	0
bin	0.0012	0
bin	0.00125	0
bin	0.0013	160
bin	0.00135	0
bin	0.0014	320
bin	0.00145	0
bin	0.0015	0
bin	0.00155	0
bin	0.0016	0
bin	0.00165	0
bin	0.0017	0
bin	0.00175	0
bin	0.0018	0
bin	0.00185	320
bin	0.0019	0
bin	0.00195	320
bin	0.002	160
bin	0.00205	160
bin	0.0021	160
bin	0.00215	0
bin	0.0022	0
bin	0.00225	0
bin	0.0023	0
bin	0.00235	0
bin	0.0024	0
bin	0.00245	160
bin	0.0025	0
bin	0.00255	0
bin	0.0026	0
bin	0.00265	0
bin	0.0027	0
bin	0.00275	0
bin	0.0028	0
bin	0.00285	0
scalar Jellyfish_24_8_7_8_per00001__jelly_faults_seed38.source_090.app[0] numActiveSessions:max 1
attr interpolationmode sample-hold
attr source sum(connect)
attr title "number of active sessions, max"
scalar Jellyfish_24_8_7_8_per00001__jelly_faults_seed38.source_090.app[0] numActiveSessions:timeavg 0.0038072
attr interpolationmode sample-hold
attr source sum(connect)
attr title "number of active sessions, timeavg"
statistic Jellyfish_24_8_7_8_per00001__jelly_faults_seed38.source_091.app[0] endToEndDelay:histogram
field count 6
field mean 0.000548
field stddev 0
field min 0.000548
field max 0.000548
field sum 0.003288
field sqrsum 1.801824e-06
attr interpolationmode none
attr source dataAge(packetReceived)
attr title "end-to-end delay, histogram"
attr unit s
bin	-inf	0
bin	0	6
bin	0.01	0
bin	0.02	0
bin	0.03	0
bin	0.04	0
bin	0.05	0
bin	0.06	0
bin	0.07	0
bin	0.08	0
bin	0.09	0
bin	0.1	0
bin	0.11	0
bin	0.12	0
bin	0.13	0
bin	0.14	0
bin	0.15	0
bin	0.16	0
bin	0.17	0
bin	0.18	0
bin	0.19	0
bin	0.2	0
bin	0.21	0
bin	0.22	0
bin	0.23	0
bin	0.24	0
bin	0.25	0
bin	0.26	0
bin	0.27	0
bin	0.28	0
bin	0.29	0
bin	0.3	0
bin	0.31	0
bin	0.32	0
bin	0.33	0
bin	0.34	0
bin	0.35	0
bin	0.36	0
bin	0.37	0
bin	0.38	0
bin	0.39	0
bin	0.4	0
bin	0.41	0
bin	0.42	0
bin	0.43	0
bin	0.44	0
bin	0.45	0
bin	0.46	0
bin	0.47	0
bin	0.48	0
bin	0.49	0
bin	0.5	0
bin	0.51	0
statistic Jellyfish_24_8_7_8_per00001__jelly_faults_seed38.source_091.app[0] endToEndDelay:weightedHistogram
field count 6
field mean 0.000548
field stddev 0
field min 0.000548
field max 0.000548
field weights 960
field weightedSum 0.52608
field sqrSumWeights 153600
field weightedSqrSum 0.00028829184
attr interpolationmode none
attr source dataAge(packetReceived)
attr title "end-to-end delay, weightedHistogram"
attr unit s
bin	-inf	0
bin	0	960
bin	0.01	0
bin	0.02	0
bin	0.03	0
bin	0.04	0
bin	0.05	0
bin	0.06	0
bin	0.07	0
bin	0.08	0
bin	0.09	0
bin	0.1	0
bin	0.11	0
bin	0.12	0
bin	0.13	0
bin	0.14	0
bin	0.15	0
bin	0.16	0
bin	0.17	0
bin	0.18	0
bin	0.19	0
bin	0.2	0
bin	0.21	0
bin	0.22	0
bin	0.23	0
bin	0.24	0
bin	0.25	0
bin	0.26	0
bin	0.27	0
bin	0.28	0
bin	0.29	0
bin	0.3	0
bin	0.31	0
bin	0.32	0
bin	0.33	0
bin	0.34	0
bin	0.35	0
bin	0.36	0
bin	0.37	0
bin	0.38	0
bin	0.39	0
bin	0.4	0
bin	0.41	0
bin	0.42	0
bin	0.43	0
bin	0.44	0
bin	0.45	0
bin	0.46	0
bin	0.47	0
bin	0.48	0
bin	0.49	0
bin	0.5	0
bin	0.51	0
scalar Jellyfish_24_8_7_8_per00001__jelly_faults_seed38.source_091.app[0] numActiveSessions:max 1
attr interpolationmode sample-hold
attr source sum(connect)
attr title "number of active sessions, max"
scalar Jellyfish_24_8_7_8_per00001__jelly_faults_seed38.source_091.app[0] numActiveSessions:timeavg 5.0041e-05
attr interpolationmode sample-hold
attr source sum(connect)
attr title "number of active sessions, timeavg"
statistic Jellyfish_24_8_7_8_per00001__jelly_faults_seed38.source_092.app[0] endToEndDelay:histogram
field count 8
field mean 0.0011
field stddev 0.00041239786614385
field min 0.000882
field max 0.001912
field sum 0.0088
field sqrsum 1.0870504e-05
attr interpolationmode none
attr source dataAge(packetReceived)
attr title "end-to-end delay, histogram"
attr unit s
bin	-inf	0
bin	0.00062	0
bin	0.00064	0
bin	0.00066	0
bin	0.00068	0
bin	0.0007	0
bin	0.00072	0
bin	0.00074	0
bin	0.00076	0
bin	0.00078	0
bin	0.0008	0
bin	0.00082	0
bin	0.00084	0
bin	0.00086	0
bin	0.00088	6
bin	0.0009	0
bin	0.00092	0
bin	0.00094	0
bin	0.00096	0
bin	0.00098	0
bin	0.001	0
bin	0.00102	0
bin	0.00104	0
bin	0.00106	0
bin	0.00108	0
bin	0.0011	0
bin	0.00112	0
bin	0.00114	0
bin	0.00116	0
bin	0.00118	0
bin	0.0012	0
bin	0.00122	0
bin	0.00124	0
bin	0.00126	0
bin	0.00128	0
bin	0.0013	0
bin	0.00132	0
bin	0.00134	0
bin	0.00136	0
bin	0.00138	0
bin	0.0014	0
bin	0.00142	0
bin	0.00144	0
bin	0.00146	0
bin	0.00148	0
bin	0.0015	0
bin	0.00152	0
bin	0.00154	0
bin	0.00156	0
bin	0.00158	1
bin	0.0016	0
bin	0.00162	0
bin	0.00164	0
bin	0.00166	0
bin	0.00168	0
bin	0.0017	0
bin	0.00172	0
bin	0.00174	0
bin	0.00176	0
bin	0.00178	0
bin	0.0018	0
bin	0.00182	0
bin	0.00184	0
bin	0.00186	0
bin	0.00188	0
bin	0.0019	1
bin	0.00192	0
bin	0.00194	0
bin	0.00196	0
bin	0.00198	0
bin	0.002	0
bin	0.00202	0
bin	0.00204	0
bin	0.00206	0
bin	0.00208	0
bin	0.0021	0
bin	0.00212	0
bin	0.00214	0
bin	0.00216	0
bin	0.00218	0
statistic Jellyfish_24_8_7_8_per00001__jelly_faults_seed38.source_092.app[0] endToEndDelay:weightedHistogram
field count 8
field mean 0.0011
field stddev 0.00041239786614385
field min 0.000882
field max 0.001912
field weights 1280
field weightedSum 1.408
field sqrSumWeights 204800
field weightedSqrSum 0.00173928064
attr interpolationmode none
attr source dataAge(packetReceived)
attr title "end-to-end delay, weightedHistogram"
attr unit s
bin	-inf	0
bin	0.00062	0
bin	0.00064	0
bin	0.00066	0
bin	0.00068	0
bin	0.0007	0
bin	0.00072	0
bin	0.00074	0
bin	0.00076	0
bin	0.00078	0
bin	0.0008	0
bin	0.00082	0
bin	0.00084	0
bin	0.00086	0
bin	0.00088	960
bin	0.0009	0
bin	0.00092	0
bin	0.00094	0
bin	0.00096	0
bin	0.00098	0
bin	0.001	0
bin	0.00102	0
bin	0.00104	0
bin	0.00106	0
bin	0.00108	0
bin	0.0011	0
bin	0.00112	0
bin	0.00114	0
bin	0.00116	0
bin	0.00118	0
bin	0.0012	0
bin	0.00122	0
bin	0.00124	0
bin	0.00126	0
bin	0.00128	0
bin	0.0013	0
bin	0.00132	0
bin	0.00134	0
bin	0.00136	0
bin	0.00138	0
bin	0.0014	0
bin	0.00142	0
bin	0.00144	0
bin	0.00146	0
bin	0.00148	0
bin	0.0015	0
bin	0.00152	0
bin	0.00154	0
bin	0.00156	0
bin	0.00158	160
bin	0.0016	0
bin	0.00162	0
bin	0.00164	0
bin	0.00166	0
bin	0.00168	0
bin	0.0017	0
bin	0.00172	0
bin	0.00174	0
bin	0.00176	0
bin	0.00178	0
bin	0.0018	0
bin	0.00182	0
bin	0.00184	0
bin	0.00186	0
bin	0.00188	0
bin	0.0019	160
bin	0.00192	0
bin	0.00194	0
bin	0.00196	0
bin	0.00198	0
bin	0.002	0
bin	0.00202	0
bin	0.00204	0
bin	0.00206	0
bin	0.00208	0
bin	0.0021	0
bin	0.00212	0
bin	0.00214	0
bin	0.00216	0
bin	0.00218	0
scalar Jellyfish_24_8_7_8_per00001__jelly_faults_seed38.source_092.app[0] numActiveSessions:max 1
attr interpolationmode sample-hold
attr source sum(connect)
attr title "number of active sessions, max"
scalar Jellyfish_24_8_7_8_per00001__jelly_faults_seed38.source_092.app[0] numActiveSessions:timeavg 7.1234e-05
attr interpolationmode sample-hold
attr source sum(connect)
attr title "number of active sessions, timeavg"
statistic Jellyfish_24_8_7_8_per00001__jelly_faults_seed38.source_093.app[0] endToEndDelay:histogram
field count 757
field mean 0.00094655878467637
field stddev 0.00023840172909728
field min 0.000882
field max 0.002209
field sum 0.71654500000001
field sqrsum 0.00072121951499999
attr interpolationmode none
attr source dataAge(packetReceived)
attr title "end-to-end delay, histogram"
attr unit s
bin	-inf	0
bin	0.00054	0
bin	0.00056	0
bin	0.00058	0
bin	0.0006	0
bin	0.00062	0
bin	0.00064	0
bin	0.00066	0
bin	0.00068	0
bin	0.0007	0
bin	0.00072	0
bin	0.00074	0
bin	0.00076	0
bin	0.00078	0
bin	0.0008	0
bin	0.00082	0
bin	0.00084	0
bin	0.00086	0
bin	0.00088	687
bin	0.0009	2
bin	0.00092	9
bin	0.00094	1
bin	0.00096	0
bin	0.00098	0
bin	0.001	2
bin	0.00102	0
bin	0.00104	0
bin	0.00106	0
bin	0.00108	0
bin	0.0011	0
bin	0.00112	0
bin	0.00114	0
bin	0.00116	1
bin	0.00118	1
bin	0.0012	0
bin	0.00122	1
bin	0.00124	0
bin	0.00126	1
bin	0.00128	0
bin	0.0013	1
bin	0.00132	0
bin	0.00134	0
bin	0.00136	1
bin	0.00138	0
bin	0.0014	0
bin	0.00142	0
bin	0.00144	6
bin	0.00146	1
bin	0.00148	5
bin	0.0015	0
bin	0.00152	5
bin	0.00154	0
bin	0.00156	0
bin	0.00158	1
bin	0.0016	0
bin	0.00162	1
bin	0.00164	2
bin	0.00166	0
bin	0.00168	0
bin	0.0017	0
bin	0.00172	0
bin	0.00174	0
bin	0.00176	0
bin	0.00178	0
bin	0.0018	0
bin	0.00182	0
bin	0.00184	1
bin	0.00186	1
bin	0.00188	3
bin	0.0019	0
bin	0.00192	5
bin	0.00194	0
bin	0.00196	2
bin	0.00198	3
bin	0.002	1
bin	0.00202	7
bin	0.00204	0
bin	0.00206	1
bin	0.00208	0
bin	0.0021	0
bin	0.00212	2
bin	0.00214	0
bin	0.00216	1
bin	0.00218	0
bin	0.0022	2
bin	0.00222	0
bin	0.00224	0
bin	0.00226	0
bin	0.00228	0
bin	0.0023	0
bin	0.00232	0
bin	0.00234	0
bin	0.00236	0
bin	0.00238	0
bin	0.0024	0
bin	0.00242	0
bin	0.00244	0
bin	0.00246	0
bin	0.00248	0
bin	0.0025	0
bin	0.00252	0
bin	0.00254	0
bin	0.00256	0
statistic Jellyfish_24_8_7_8_per00001__jelly_faults_seed38.source_093.app[0] endToEndDelay:weightedHistogram
field count 757
field mean 0.00094655878467636
field stddev 0.00023840172909739
field min 0.000882
field max 0.002209
field weights 121120
field weightedSum 114.6472
field sqrSumWeights 19379200
field weightedSqrSum 0.1153951224
attr interpolationmode none
attr source dataAge(packetReceived)
attr title "end-to-end delay, weightedHistogram"
attr unit s
bin	-inf	0
bin	0.00054	0
bin	0.00056	0
bin	0.00058	0
bin	0.0006	0
bin	0.00062	0
bin	0.00064	0
bin	0.00066	0
bin	0.00068	0
bin	0.0007	0
bin	0.00072	0
bin	0.00074	0
bin	0.00076	0
bin	0.00078	0
bin	0.0008	0
bin	0.00082	0
bin	0.00084	0
bin	0.00086	0
bin	0.00088	109920
bin	0.0009	320
bin	0.00092	1440
bin	0.00094	160
bin	0.00096	0
bin	0.00098	0
bin	0.001	320
bin	0.00102	0
bin	0.00104	0
bin	0.00106	0
bin	0.00108	0
bin	0.0011	0
bin	0.00112	0
bin	0.00114	0
bin	0.00116	160
bin	0.00118	160
bin	0.0012	0
bin	0.00122	160
bin	0.00124	0
bin	0.00126	160
bin	0.00128	0
bin	0.0013	160
bin	0.00132	0
bin	0.00134	0
bin	0.00136	160
bin	0.00138	0
bin	0.0014	0
bin	0.00142	0
bin	0.00144	960
bin	0.00146	160
bin	0.00148	800
bin	0.0015	0
bin	0.00152	800
bin	0.00154	0
bin	0.00156	0
bin	0.00158	160
bin	0.0016	0
bin	0.00162	160
bin	0.00164	320
bin	0.00166	0
bin	0.00168	0
bin	0.0017	0
bin	0.00172	0
bin	0.00174	0
bin	0.00176	0
bin	0.00178	0
bin	0.0018	0
bin	0.00182	0
bin	0.00184	160
bin	0.00186	160
bin	0.00188	480
bin	0.0019	0
bin	0.00192	800
bin	0.00194	0
bin	0.00196	320
bin	0.00198	480
bin	0.002	160
bin	0.00202	1120
bin	0.00204	0
bin	0.00206	160
bin	0.00208	0
bin	0.0021	0
bin	0.00212	320
bin	0.00214	0
bin	0.00216	160
bin	0.00218	0
bin	0.0022	320
bin	0.00222	0
bin	0.00224	0
bin	0.00226	0
bin	0.00228	0
bin	0.0023	0
bin	0.00232	0
bin	0.00234	0
bin	0.00236	0
bin	0.00238	0
bin	0.0024	0
bin	0.00242	0
bin	0.00244	0
bin	0.00246	0
bin	0.00248	0
bin	0.0025	0
bin	0.00252	0
bin	0.00254	0
bin	0.00256	0
scalar Jellyfish_24_8_7_8_per00001__jelly_faults_seed38.source_093.app[0] numActiveSessions:max 1
attr interpolationmode sample-hold
attr source sum(connect)
attr title "number of active sessions, max"
scalar Jellyfish_24_8_7_8_per00001__jelly_faults_seed38.source_093.app[0] numActiveSessions:timeavg 0.006235389
attr interpolationmode sample-hold
attr source sum(connect)
attr title "number of active sessions, timeavg"

