version 2
run General-0-20220428-00:27:49-22915
attr configname General
attr datetime 20220428-00:27:49
attr experiment General
attr inifile Jellyfish__fvj_dc_big_traffic_seed6.ini
attr iterationvars ""
attr iterationvarsf ""
attr measurement ""
attr network Jellyfish__fvj_dc_big_traffic_seed6
attr processid 22915
attr repetition 0
attr replication #0
attr resultdir results
attr runnumber 0
attr seedset 0
param **.ppp[*].ppp.queue.typename "\"DropTailQueue\""
param **.ppp[*].ppp.queue.packetCapacity 100
param *.configurator.config "xmldoc(\"Jellyfish__fvj_dc_big_traffic_seed6.xml\")"
param **.sink_000.numApps 1
param **.sink_000.app[0].typename "\"TcpGenericServerApp\""
param **.sink_000.app[0].localAddress "\"\""
param **.sink_000.app[0].localPort 1100
param **.sink_000.app[0].replyDelay 0s
param **.sink_001.numApps 1
param **.sink_001.app[0].typename "\"TcpGenericServerApp\""
param **.sink_001.app[0].localAddress "\"\""
param **.sink_001.app[0].localPort 1100
param **.sink_001.app[0].replyDelay 0s
param **.sink_002.numApps 1
param **.sink_002.app[0].typename "\"TcpGenericServerApp\""
param **.sink_002.app[0].localAddress "\"\""
param **.sink_002.app[0].localPort 1100
param **.sink_002.app[0].replyDelay 0s
param **.sink_003.numApps 1
param **.sink_003.app[0].typename "\"TcpGenericServerApp\""
param **.sink_003.app[0].localAddress "\"\""
param **.sink_003.app[0].localPort 1100
param **.sink_003.app[0].replyDelay 0s
param **.sink_004.numApps 1
param **.sink_004.app[0].typename "\"TcpGenericServerApp\""
param **.sink_004.app[0].localAddress "\"\""
param **.sink_004.app[0].localPort 1100
param **.sink_004.app[0].replyDelay 0s
param **.sink_005.numApps 1
param **.sink_005.app[0].typename "\"TcpGenericServerApp\""
param **.sink_005.app[0].localAddress "\"\""
param **.sink_005.app[0].localPort 1100
param **.sink_005.app[0].replyDelay 0s
param **.sink_006.numApps 1
param **.sink_006.app[0].typename "\"TcpGenericServerApp\""
param **.sink_006.app[0].localAddress "\"\""
param **.sink_006.app[0].localPort 1100
param **.sink_006.app[0].replyDelay 0s
param **.sink_007.numApps 1
param **.sink_007.app[0].typename "\"TcpGenericServerApp\""
param **.sink_007.app[0].localAddress "\"\""
param **.sink_007.app[0].localPort 1100
param **.sink_007.app[0].replyDelay 0s
param **.sink_008.numApps 1
param **.sink_008.app[0].typename "\"TcpGenericServerApp\""
param **.sink_008.app[0].localAddress "\"\""
param **.sink_008.app[0].localPort 1100
param **.sink_008.app[0].replyDelay 0s
param **.sink_009.numApps 1
param **.sink_009.app[0].typename "\"TcpGenericServerApp\""
param **.sink_009.app[0].localAddress "\"\""
param **.sink_009.app[0].localPort 1100
param **.sink_009.app[0].replyDelay 0s
param **.sink_010.numApps 1
param **.sink_010.app[0].typename "\"TcpGenericServerApp\""
param **.sink_010.app[0].localAddress "\"\""
param **.sink_010.app[0].localPort 1100
param **.sink_010.app[0].replyDelay 0s
param **.sink_011.numApps 1
param **.sink_011.app[0].typename "\"TcpGenericServerApp\""
param **.sink_011.app[0].localAddress "\"\""
param **.sink_011.app[0].localPort 1100
param **.sink_011.app[0].replyDelay 0s
param **.sink_012.numApps 1
param **.sink_012.app[0].typename "\"TcpGenericServerApp\""
param **.sink_012.app[0].localAddress "\"\""
param **.sink_012.app[0].localPort 1100
param **.sink_012.app[0].replyDelay 0s
param **.sink_013.numApps 1
param **.sink_013.app[0].typename "\"TcpGenericServerApp\""
param **.sink_013.app[0].localAddress "\"\""
param **.sink_013.app[0].localPort 1100
param **.sink_013.app[0].replyDelay 0s
param **.sink_014.numApps 1
param **.sink_014.app[0].typename "\"TcpGenericServerApp\""
param **.sink_014.app[0].localAddress "\"\""
param **.sink_014.app[0].localPort 1100
param **.sink_014.app[0].replyDelay 0s
param **.sink_015.numApps 1
param **.sink_015.app[0].typename "\"TcpGenericServerApp\""
param **.sink_015.app[0].localAddress "\"\""
param **.sink_015.app[0].localPort 1100
param **.sink_015.app[0].replyDelay 0s
param **.sink_016.numApps 1
param **.sink_016.app[0].typename "\"TcpGenericServerApp\""
param **.sink_016.app[0].localAddress "\"\""
param **.sink_016.app[0].localPort 1100
param **.sink_016.app[0].replyDelay 0s
param **.sink_017.numApps 1
param **.sink_017.app[0].typename "\"TcpGenericServerApp\""
param **.sink_017.app[0].localAddress "\"\""
param **.sink_017.app[0].localPort 1100
param **.sink_017.app[0].replyDelay 0s
param **.sink_018.numApps 1
param **.sink_018.app[0].typename "\"TcpGenericServerApp\""
param **.sink_018.app[0].localAddress "\"\""
param **.sink_018.app[0].localPort 1100
param **.sink_018.app[0].replyDelay 0s
param **.sink_019.numApps 1
param **.sink_019.app[0].typename "\"TcpGenericServerApp\""
param **.sink_019.app[0].localAddress "\"\""
param **.sink_019.app[0].localPort 1100
param **.sink_019.app[0].replyDelay 0s
param **.sink_020.numApps 1
param **.sink_020.app[0].typename "\"TcpGenericServerApp\""
param **.sink_020.app[0].localAddress "\"\""
param **.sink_020.app[0].localPort 1100
param **.sink_020.app[0].replyDelay 0s
param **.sink_021.numApps 1
param **.sink_021.app[0].typename "\"TcpGenericServerApp\""
param **.sink_021.app[0].localAddress "\"\""
param **.sink_021.app[0].localPort 1100
param **.sink_021.app[0].replyDelay 0s
param **.sink_022.numApps 1
param **.sink_022.app[0].typename "\"TcpGenericServerApp\""
param **.sink_022.app[0].localAddress "\"\""
param **.sink_022.app[0].localPort 1100
param **.sink_022.app[0].replyDelay 0s
param **.sink_023.numApps 1
param **.sink_023.app[0].typename "\"TcpGenericServerApp\""
param **.sink_023.app[0].localAddress "\"\""
param **.sink_023.app[0].localPort 1100
param **.sink_023.app[0].replyDelay 0s
param **.sink_024.numApps 1
param **.sink_024.app[0].typename "\"TcpGenericServerApp\""
param **.sink_024.app[0].localAddress "\"\""
param **.sink_024.app[0].localPort 1100
param **.sink_024.app[0].replyDelay 0s
param **.sink_025.numApps 1
param **.sink_025.app[0].typename "\"TcpGenericServerApp\""
param **.sink_025.app[0].localAddress "\"\""
param **.sink_025.app[0].localPort 1100
param **.sink_025.app[0].replyDelay 0s
param **.sink_026.numApps 1
param **.sink_026.app[0].typename "\"TcpGenericServerApp\""
param **.sink_026.app[0].localAddress "\"\""
param **.sink_026.app[0].localPort 1100
param **.sink_026.app[0].replyDelay 0s
param **.sink_027.numApps 1
param **.sink_027.app[0].typename "\"TcpGenericServerApp\""
param **.sink_027.app[0].localAddress "\"\""
param **.sink_027.app[0].localPort 1100
param **.sink_027.app[0].replyDelay 0s
param **.sink_028.numApps 1
param **.sink_028.app[0].typename "\"TcpGenericServerApp\""
param **.sink_028.app[0].localAddress "\"\""
param **.sink_028.app[0].localPort 1100
param **.sink_028.app[0].replyDelay 0s
param **.sink_029.numApps 1
param **.sink_029.app[0].typename "\"TcpGenericServerApp\""
param **.sink_029.app[0].localAddress "\"\""
param **.sink_029.app[0].localPort 1100
param **.sink_029.app[0].replyDelay 0s
param **.sink_030.numApps 1
param **.sink_030.app[0].typename "\"TcpGenericServerApp\""
param **.sink_030.app[0].localAddress "\"\""
param **.sink_030.app[0].localPort 1100
param **.sink_030.app[0].replyDelay 0s
param **.sink_031.numApps 1
param **.sink_031.app[0].typename "\"TcpGenericServerApp\""
param **.sink_031.app[0].localAddress "\"\""
param **.sink_031.app[0].localPort 1100
param **.sink_031.app[0].replyDelay 0s
param **.sink_032.numApps 1
param **.sink_032.app[0].typename "\"TcpGenericServerApp\""
param **.sink_032.app[0].localAddress "\"\""
param **.sink_032.app[0].localPort 1100
param **.sink_032.app[0].replyDelay 0s
param **.sink_033.numApps 1
param **.sink_033.app[0].typename "\"TcpGenericServerApp\""
param **.sink_033.app[0].localAddress "\"\""
param **.sink_033.app[0].localPort 1100
param **.sink_033.app[0].replyDelay 0s
param **.sink_034.numApps 1
param **.sink_034.app[0].typename "\"TcpGenericServerApp\""
param **.sink_034.app[0].localAddress "\"\""
param **.sink_034.app[0].localPort 1100
param **.sink_034.app[0].replyDelay 0s
param **.sink_035.numApps 1
param **.sink_035.app[0].typename "\"TcpGenericServerApp\""
param **.sink_035.app[0].localAddress "\"\""
param **.sink_035.app[0].localPort 1100
param **.sink_035.app[0].replyDelay 0s
param **.sink_036.numApps 1
param **.sink_036.app[0].typename "\"TcpGenericServerApp\""
param **.sink_036.app[0].localAddress "\"\""
param **.sink_036.app[0].localPort 1100
param **.sink_036.app[0].replyDelay 0s
param **.sink_037.numApps 1
param **.sink_037.app[0].typename "\"TcpGenericServerApp\""
param **.sink_037.app[0].localAddress "\"\""
param **.sink_037.app[0].localPort 1100
param **.sink_037.app[0].replyDelay 0s
param **.sink_038.numApps 1
param **.sink_038.app[0].typename "\"TcpGenericServerApp\""
param **.sink_038.app[0].localAddress "\"\""
param **.sink_038.app[0].localPort 1100
param **.sink_038.app[0].replyDelay 0s
param **.sink_039.numApps 1
param **.sink_039.app[0].typename "\"TcpGenericServerApp\""
param **.sink_039.app[0].localAddress "\"\""
param **.sink_039.app[0].localPort 1100
param **.sink_039.app[0].replyDelay 0s
param **.sink_040.numApps 1
param **.sink_040.app[0].typename "\"TcpGenericServerApp\""
param **.sink_040.app[0].localAddress "\"\""
param **.sink_040.app[0].localPort 1100
param **.sink_040.app[0].replyDelay 0s
param **.sink_041.numApps 1
param **.sink_041.app[0].typename "\"TcpGenericServerApp\""
param **.sink_041.app[0].localAddress "\"\""
param **.sink_041.app[0].localPort 1100
param **.sink_041.app[0].replyDelay 0s
param **.sink_042.numApps 1
param **.sink_042.app[0].typename "\"TcpGenericServerApp\""
param **.sink_042.app[0].localAddress "\"\""
param **.sink_042.app[0].localPort 1100
param **.sink_042.app[0].replyDelay 0s
param **.sink_043.numApps 1
param **.sink_043.app[0].typename "\"TcpGenericServerApp\""
param **.sink_043.app[0].localAddress "\"\""
param **.sink_043.app[0].localPort 1100
param **.sink_043.app[0].replyDelay 0s
param **.sink_044.numApps 1
param **.sink_044.app[0].typename "\"TcpGenericServerApp\""
param **.sink_044.app[0].localAddress "\"\""
param **.sink_044.app[0].localPort 1100
param **.sink_044.app[0].replyDelay 0s
param **.sink_045.numApps 1
param **.sink_045.app[0].typename "\"TcpGenericServerApp\""
param **.sink_045.app[0].localAddress "\"\""
param **.sink_045.app[0].localPort 1100
param **.sink_045.app[0].replyDelay 0s
param **.sink_046.numApps 1
param **.sink_046.app[0].typename "\"TcpGenericServerApp\""
param **.sink_046.app[0].localAddress "\"\""
param **.sink_046.app[0].localPort 1100
param **.sink_046.app[0].replyDelay 0s
param **.sink_047.numApps 1
param **.sink_047.app[0].typename "\"TcpGenericServerApp\""
param **.sink_047.app[0].localAddress "\"\""
param **.sink_047.app[0].localPort 1100
param **.sink_047.app[0].replyDelay 0s
param **.sink_048.numApps 1
param **.sink_048.app[0].typename "\"TcpGenericServerApp\""
param **.sink_048.app[0].localAddress "\"\""
param **.sink_048.app[0].localPort 1100
param **.sink_048.app[0].replyDelay 0s
param **.sink_049.numApps 1
param **.sink_049.app[0].typename "\"TcpGenericServerApp\""
param **.sink_049.app[0].localAddress "\"\""
param **.sink_049.app[0].localPort 1100
param **.sink_049.app[0].replyDelay 0s
param **.sink_050.numApps 1
param **.sink_050.app[0].typename "\"TcpGenericServerApp\""
param **.sink_050.app[0].localAddress "\"\""
param **.sink_050.app[0].localPort 1100
param **.sink_050.app[0].replyDelay 0s
param **.sink_051.numApps 1
param **.sink_051.app[0].typename "\"TcpGenericServerApp\""
param **.sink_051.app[0].localAddress "\"\""
param **.sink_051.app[0].localPort 1100
param **.sink_051.app[0].replyDelay 0s
param **.sink_052.numApps 1
param **.sink_052.app[0].typename "\"TcpGenericServerApp\""
param **.sink_052.app[0].localAddress "\"\""
param **.sink_052.app[0].localPort 1100
param **.sink_052.app[0].replyDelay 0s
param **.sink_053.numApps 1
param **.sink_053.app[0].typename "\"TcpGenericServerApp\""
param **.sink_053.app[0].localAddress "\"\""
param **.sink_053.app[0].localPort 1100
param **.sink_053.app[0].replyDelay 0s
param **.sink_054.numApps 1
param **.sink_054.app[0].typename "\"TcpGenericServerApp\""
param **.sink_054.app[0].localAddress "\"\""
param **.sink_054.app[0].localPort 1100
param **.sink_054.app[0].replyDelay 0s
param **.sink_055.numApps 1
param **.sink_055.app[0].typename "\"TcpGenericServerApp\""
param **.sink_055.app[0].localAddress "\"\""
param **.sink_055.app[0].localPort 1100
param **.sink_055.app[0].replyDelay 0s
param **.sink_056.numApps 1
param **.sink_056.app[0].typename "\"TcpGenericServerApp\""
param **.sink_056.app[0].localAddress "\"\""
param **.sink_056.app[0].localPort 1100
param **.sink_056.app[0].replyDelay 0s
param **.sink_057.numApps 1
param **.sink_057.app[0].typename "\"TcpGenericServerApp\""
param **.sink_057.app[0].localAddress "\"\""
param **.sink_057.app[0].localPort 1100
param **.sink_057.app[0].replyDelay 0s
param **.sink_058.numApps 1
param **.sink_058.app[0].typename "\"TcpGenericServerApp\""
param **.sink_058.app[0].localAddress "\"\""
param **.sink_058.app[0].localPort 1100
param **.sink_058.app[0].replyDelay 0s
param **.sink_059.numApps 1
param **.sink_059.app[0].typename "\"TcpGenericServerApp\""
param **.sink_059.app[0].localAddress "\"\""
param **.sink_059.app[0].localPort 1100
param **.sink_059.app[0].replyDelay 0s
param **.sink_060.numApps 1
param **.sink_060.app[0].typename "\"TcpGenericServerApp\""
param **.sink_060.app[0].localAddress "\"\""
param **.sink_060.app[0].localPort 1100
param **.sink_060.app[0].replyDelay 0s
param **.sink_061.numApps 1
param **.sink_061.app[0].typename "\"TcpGenericServerApp\""
param **.sink_061.app[0].localAddress "\"\""
param **.sink_061.app[0].localPort 1100
param **.sink_061.app[0].replyDelay 0s
param **.sink_062.numApps 1
param **.sink_062.app[0].typename "\"TcpGenericServerApp\""
param **.sink_062.app[0].localAddress "\"\""
param **.sink_062.app[0].localPort 1100
param **.sink_062.app[0].replyDelay 0s
param **.sink_063.numApps 1
param **.sink_063.app[0].typename "\"TcpGenericServerApp\""
param **.sink_063.app[0].localAddress "\"\""
param **.sink_063.app[0].localPort 1100
param **.sink_063.app[0].replyDelay 0s
param **.sink_064.numApps 1
param **.sink_064.app[0].typename "\"TcpGenericServerApp\""
param **.sink_064.app[0].localAddress "\"\""
param **.sink_064.app[0].localPort 1100
param **.sink_064.app[0].replyDelay 0s
param **.sink_065.numApps 1
param **.sink_065.app[0].typename "\"TcpGenericServerApp\""
param **.sink_065.app[0].localAddress "\"\""
param **.sink_065.app[0].localPort 1100
param **.sink_065.app[0].replyDelay 0s
param **.sink_066.numApps 1
param **.sink_066.app[0].typename "\"TcpGenericServerApp\""
param **.sink_066.app[0].localAddress "\"\""
param **.sink_066.app[0].localPort 1100
param **.sink_066.app[0].replyDelay 0s
param **.sink_067.numApps 1
param **.sink_067.app[0].typename "\"TcpGenericServerApp\""
param **.sink_067.app[0].localAddress "\"\""
param **.sink_067.app[0].localPort 1100
param **.sink_067.app[0].replyDelay 0s
param **.sink_068.numApps 1
param **.sink_068.app[0].typename "\"TcpGenericServerApp\""
param **.sink_068.app[0].localAddress "\"\""
param **.sink_068.app[0].localPort 1100
param **.sink_068.app[0].replyDelay 0s
param **.sink_069.numApps 1
param **.sink_069.app[0].typename "\"TcpGenericServerApp\""
param **.sink_069.app[0].localAddress "\"\""
param **.sink_069.app[0].localPort 1100
param **.sink_069.app[0].replyDelay 0s
param **.sink_070.numApps 1
param **.sink_070.app[0].typename "\"TcpGenericServerApp\""
param **.sink_070.app[0].localAddress "\"\""
param **.sink_070.app[0].localPort 1100
param **.sink_070.app[0].replyDelay 0s
param **.sink_071.numApps 1
param **.sink_071.app[0].typename "\"TcpGenericServerApp\""
param **.sink_071.app[0].localAddress "\"\""
param **.sink_071.app[0].localPort 1100
param **.sink_071.app[0].replyDelay 0s
param **.sink_072.numApps 1
param **.sink_072.app[0].typename "\"TcpGenericServerApp\""
param **.sink_072.app[0].localAddress "\"\""
param **.sink_072.app[0].localPort 1100
param **.sink_072.app[0].replyDelay 0s
param **.sink_073.numApps 1
param **.sink_073.app[0].typename "\"TcpGenericServerApp\""
param **.sink_073.app[0].localAddress "\"\""
param **.sink_073.app[0].localPort 1100
param **.sink_073.app[0].replyDelay 0s
param **.sink_074.numApps 1
param **.sink_074.app[0].typename "\"TcpGenericServerApp\""
param **.sink_074.app[0].localAddress "\"\""
param **.sink_074.app[0].localPort 1100
param **.sink_074.app[0].replyDelay 0s
param **.sink_075.numApps 1
param **.sink_075.app[0].typename "\"TcpGenericServerApp\""
param **.sink_075.app[0].localAddress "\"\""
param **.sink_075.app[0].localPort 1100
param **.sink_075.app[0].replyDelay 0s
param **.sink_076.numApps 1
param **.sink_076.app[0].typename "\"TcpGenericServerApp\""
param **.sink_076.app[0].localAddress "\"\""
param **.sink_076.app[0].localPort 1100
param **.sink_076.app[0].replyDelay 0s
param **.sink_077.numApps 1
param **.sink_077.app[0].typename "\"TcpGenericServerApp\""
param **.sink_077.app[0].localAddress "\"\""
param **.sink_077.app[0].localPort 1100
param **.sink_077.app[0].replyDelay 0s
param **.sink_078.numApps 1
param **.sink_078.app[0].typename "\"TcpGenericServerApp\""
param **.sink_078.app[0].localAddress "\"\""
param **.sink_078.app[0].localPort 1100
param **.sink_078.app[0].replyDelay 0s
param **.sink_079.numApps 1
param **.sink_079.app[0].typename "\"TcpGenericServerApp\""
param **.sink_079.app[0].localAddress "\"\""
param **.sink_079.app[0].localPort 1100
param **.sink_079.app[0].replyDelay 0s
param **.sink_080.numApps 1
param **.sink_080.app[0].typename "\"TcpGenericServerApp\""
param **.sink_080.app[0].localAddress "\"\""
param **.sink_080.app[0].localPort 1100
param **.sink_080.app[0].replyDelay 0s
param **.sink_081.numApps 1
param **.sink_081.app[0].typename "\"TcpGenericServerApp\""
param **.sink_081.app[0].localAddress "\"\""
param **.sink_081.app[0].localPort 1100
param **.sink_081.app[0].replyDelay 0s
param **.sink_082.numApps 1
param **.sink_082.app[0].typename "\"TcpGenericServerApp\""
param **.sink_082.app[0].localAddress "\"\""
param **.sink_082.app[0].localPort 1100
param **.sink_082.app[0].replyDelay 0s
param **.sink_083.numApps 1
param **.sink_083.app[0].typename "\"TcpGenericServerApp\""
param **.sink_083.app[0].localAddress "\"\""
param **.sink_083.app[0].localPort 1100
param **.sink_083.app[0].replyDelay 0s
param **.sink_084.numApps 1
param **.sink_084.app[0].typename "\"TcpGenericServerApp\""
param **.sink_084.app[0].localAddress "\"\""
param **.sink_084.app[0].localPort 1100
param **.sink_084.app[0].replyDelay 0s
param **.sink_085.numApps 1
param **.sink_085.app[0].typename "\"TcpGenericServerApp\""
param **.sink_085.app[0].localAddress "\"\""
param **.sink_085.app[0].localPort 1100
param **.sink_085.app[0].replyDelay 0s
param **.sink_086.numApps 1
param **.sink_086.app[0].typename "\"TcpGenericServerApp\""
param **.sink_086.app[0].localAddress "\"\""
param **.sink_086.app[0].localPort 1100
param **.sink_086.app[0].replyDelay 0s
param **.sink_087.numApps 1
param **.sink_087.app[0].typename "\"TcpGenericServerApp\""
param **.sink_087.app[0].localAddress "\"\""
param **.sink_087.app[0].localPort 1100
param **.sink_087.app[0].replyDelay 0s
param **.sink_088.numApps 1
param **.sink_088.app[0].typename "\"TcpGenericServerApp\""
param **.sink_088.app[0].localAddress "\"\""
param **.sink_088.app[0].localPort 1100
param **.sink_088.app[0].replyDelay 0s
param **.sink_089.numApps 1
param **.sink_089.app[0].typename "\"TcpGenericServerApp\""
param **.sink_089.app[0].localAddress "\"\""
param **.sink_089.app[0].localPort 1100
param **.sink_089.app[0].replyDelay 0s
param **.sink_090.numApps 1
param **.sink_090.app[0].typename "\"TcpGenericServerApp\""
param **.sink_090.app[0].localAddress "\"\""
param **.sink_090.app[0].localPort 1100
param **.sink_090.app[0].replyDelay 0s
param **.sink_091.numApps 1
param **.sink_091.app[0].typename "\"TcpGenericServerApp\""
param **.sink_091.app[0].localAddress "\"\""
param **.sink_091.app[0].localPort 1100
param **.sink_091.app[0].replyDelay 0s
param **.sink_092.numApps 1
param **.sink_092.app[0].typename "\"TcpGenericServerApp\""
param **.sink_092.app[0].localAddress "\"\""
param **.sink_092.app[0].localPort 1100
param **.sink_092.app[0].replyDelay 0s
param **.sink_093.numApps 1
param **.sink_093.app[0].typename "\"TcpGenericServerApp\""
param **.sink_093.app[0].localAddress "\"\""
param **.sink_093.app[0].localPort 1100
param **.sink_093.app[0].replyDelay 0s
param **.sink_094.numApps 1
param **.sink_094.app[0].typename "\"TcpGenericServerApp\""
param **.sink_094.app[0].localAddress "\"\""
param **.sink_094.app[0].localPort 1100
param **.sink_094.app[0].replyDelay 0s
param **.sink_095.numApps 1
param **.sink_095.app[0].typename "\"TcpGenericServerApp\""
param **.sink_095.app[0].localAddress "\"\""
param **.sink_095.app[0].localPort 1100
param **.sink_095.app[0].replyDelay 0s
param **.sink_096.numApps 1
param **.sink_096.app[0].typename "\"TcpGenericServerApp\""
param **.sink_096.app[0].localAddress "\"\""
param **.sink_096.app[0].localPort 1100
param **.sink_096.app[0].replyDelay 0s
param **.sink_097.numApps 1
param **.sink_097.app[0].typename "\"TcpGenericServerApp\""
param **.sink_097.app[0].localAddress "\"\""
param **.sink_097.app[0].localPort 1100
param **.sink_097.app[0].replyDelay 0s
param **.sink_098.numApps 1
param **.sink_098.app[0].typename "\"TcpGenericServerApp\""
param **.sink_098.app[0].localAddress "\"\""
param **.sink_098.app[0].localPort 1100
param **.sink_098.app[0].replyDelay 0s
param **.sink_099.numApps 1
param **.sink_099.app[0].typename "\"TcpGenericServerApp\""
param **.sink_099.app[0].localAddress "\"\""
param **.sink_099.app[0].localPort 1100
param **.sink_099.app[0].replyDelay 0s
param **.sink_100.numApps 1
param **.sink_100.app[0].typename "\"TcpGenericServerApp\""
param **.sink_100.app[0].localAddress "\"\""
param **.sink_100.app[0].localPort 1100
param **.sink_100.app[0].replyDelay 0s
param **.sink_101.numApps 1
param **.sink_101.app[0].typename "\"TcpGenericServerApp\""
param **.sink_101.app[0].localAddress "\"\""
param **.sink_101.app[0].localPort 1100
param **.sink_101.app[0].replyDelay 0s
param **.sink_102.numApps 1
param **.sink_102.app[0].typename "\"TcpGenericServerApp\""
param **.sink_102.app[0].localAddress "\"\""
param **.sink_102.app[0].localPort 1100
param **.sink_102.app[0].replyDelay 0s
param **.sink_103.numApps 1
param **.sink_103.app[0].typename "\"TcpGenericServerApp\""
param **.sink_103.app[0].localAddress "\"\""
param **.sink_103.app[0].localPort 1100
param **.sink_103.app[0].replyDelay 0s
param **.sink_104.numApps 1
param **.sink_104.app[0].typename "\"TcpGenericServerApp\""
param **.sink_104.app[0].localAddress "\"\""
param **.sink_104.app[0].localPort 1100
param **.sink_104.app[0].replyDelay 0s
param **.sink_105.numApps 1
param **.sink_105.app[0].typename "\"TcpGenericServerApp\""
param **.sink_105.app[0].localAddress "\"\""
param **.sink_105.app[0].localPort 1100
param **.sink_105.app[0].replyDelay 0s
param **.sink_106.numApps 1
param **.sink_106.app[0].typename "\"TcpGenericServerApp\""
param **.sink_106.app[0].localAddress "\"\""
param **.sink_106.app[0].localPort 1100
param **.sink_106.app[0].replyDelay 0s
param **.sink_107.numApps 1
param **.sink_107.app[0].typename "\"TcpGenericServerApp\""
param **.sink_107.app[0].localAddress "\"\""
param **.sink_107.app[0].localPort 1100
param **.sink_107.app[0].replyDelay 0s
param **.sink_108.numApps 1
param **.sink_108.app[0].typename "\"TcpGenericServerApp\""
param **.sink_108.app[0].localAddress "\"\""
param **.sink_108.app[0].localPort 1100
param **.sink_108.app[0].replyDelay 0s
param **.sink_109.numApps 1
param **.sink_109.app[0].typename "\"TcpGenericServerApp\""
param **.sink_109.app[0].localAddress "\"\""
param **.sink_109.app[0].localPort 1100
param **.sink_109.app[0].replyDelay 0s
param **.sink_110.numApps 1
param **.sink_110.app[0].typename "\"TcpGenericServerApp\""
param **.sink_110.app[0].localAddress "\"\""
param **.sink_110.app[0].localPort 1100
param **.sink_110.app[0].replyDelay 0s
param **.sink_111.numApps 1
param **.sink_111.app[0].typename "\"TcpGenericServerApp\""
param **.sink_111.app[0].localAddress "\"\""
param **.sink_111.app[0].localPort 1100
param **.sink_111.app[0].replyDelay 0s
param **.sink_112.numApps 1
param **.sink_112.app[0].typename "\"TcpGenericServerApp\""
param **.sink_112.app[0].localAddress "\"\""
param **.sink_112.app[0].localPort 1100
param **.sink_112.app[0].replyDelay 0s
param **.sink_113.numApps 1
param **.sink_113.app[0].typename "\"TcpGenericServerApp\""
param **.sink_113.app[0].localAddress "\"\""
param **.sink_113.app[0].localPort 1100
param **.sink_113.app[0].replyDelay 0s
param **.sink_114.numApps 1
param **.sink_114.app[0].typename "\"TcpGenericServerApp\""
param **.sink_114.app[0].localAddress "\"\""
param **.sink_114.app[0].localPort 1100
param **.sink_114.app[0].replyDelay 0s
param **.sink_115.numApps 1
param **.sink_115.app[0].typename "\"TcpGenericServerApp\""
param **.sink_115.app[0].localAddress "\"\""
param **.sink_115.app[0].localPort 1100
param **.sink_115.app[0].replyDelay 0s
param **.sink_116.numApps 1
param **.sink_116.app[0].typename "\"TcpGenericServerApp\""
param **.sink_116.app[0].localAddress "\"\""
param **.sink_116.app[0].localPort 1100
param **.sink_116.app[0].replyDelay 0s
param **.sink_117.numApps 1
param **.sink_117.app[0].typename "\"TcpGenericServerApp\""
param **.sink_117.app[0].localAddress "\"\""
param **.sink_117.app[0].localPort 1100
param **.sink_117.app[0].replyDelay 0s
param **.sink_118.numApps 1
param **.sink_118.app[0].typename "\"TcpGenericServerApp\""
param **.sink_118.app[0].localAddress "\"\""
param **.sink_118.app[0].localPort 1100
param **.sink_118.app[0].replyDelay 0s
param **.sink_119.numApps 1
param **.sink_119.app[0].typename "\"TcpGenericServerApp\""
param **.sink_119.app[0].localAddress "\"\""
param **.sink_119.app[0].localPort 1100
param **.sink_119.app[0].replyDelay 0s
param **.sink_120.numApps 1
param **.sink_120.app[0].typename "\"TcpGenericServerApp\""
param **.sink_120.app[0].localAddress "\"\""
param **.sink_120.app[0].localPort 1100
param **.sink_120.app[0].replyDelay 0s
param **.sink_121.numApps 1
param **.sink_121.app[0].typename "\"TcpGenericServerApp\""
param **.sink_121.app[0].localAddress "\"\""
param **.sink_121.app[0].localPort 1100
param **.sink_121.app[0].replyDelay 0s
param **.sink_122.numApps 1
param **.sink_122.app[0].typename "\"TcpGenericServerApp\""
param **.sink_122.app[0].localAddress "\"\""
param **.sink_122.app[0].localPort 1100
param **.sink_122.app[0].replyDelay 0s
param **.sink_123.numApps 1
param **.sink_123.app[0].typename "\"TcpGenericServerApp\""
param **.sink_123.app[0].localAddress "\"\""
param **.sink_123.app[0].localPort 1100
param **.sink_123.app[0].replyDelay 0s
param **.sink_124.numApps 1
param **.sink_124.app[0].typename "\"TcpGenericServerApp\""
param **.sink_124.app[0].localAddress "\"\""
param **.sink_124.app[0].localPort 1100
param **.sink_124.app[0].replyDelay 0s
param **.sink_125.numApps 1
param **.sink_125.app[0].typename "\"TcpGenericServerApp\""
param **.sink_125.app[0].localAddress "\"\""
param **.sink_125.app[0].localPort 1100
param **.sink_125.app[0].replyDelay 0s
param **.sink_126.numApps 1
param **.sink_126.app[0].typename "\"TcpGenericServerApp\""
param **.sink_126.app[0].localAddress "\"\""
param **.sink_126.app[0].localPort 1100
param **.sink_126.app[0].replyDelay 0s
param **.sink_127.numApps 1
param **.sink_127.app[0].typename "\"TcpGenericServerApp\""
param **.sink_127.app[0].localAddress "\"\""
param **.sink_127.app[0].localPort 1100
param **.sink_127.app[0].replyDelay 0s
param **.sink_128.numApps 1
param **.sink_128.app[0].typename "\"TcpGenericServerApp\""
param **.sink_128.app[0].localAddress "\"\""
param **.sink_128.app[0].localPort 1100
param **.sink_128.app[0].replyDelay 0s
param **.sink_129.numApps 1
param **.sink_129.app[0].typename "\"TcpGenericServerApp\""
param **.sink_129.app[0].localAddress "\"\""
param **.sink_129.app[0].localPort 1100
param **.sink_129.app[0].replyDelay 0s
param **.sink_130.numApps 1
param **.sink_130.app[0].typename "\"TcpGenericServerApp\""
param **.sink_130.app[0].localAddress "\"\""
param **.sink_130.app[0].localPort 1100
param **.sink_130.app[0].replyDelay 0s
param **.sink_131.numApps 1
param **.sink_131.app[0].typename "\"TcpGenericServerApp\""
param **.sink_131.app[0].localAddress "\"\""
param **.sink_131.app[0].localPort 1100
param **.sink_131.app[0].replyDelay 0s
param **.sink_132.numApps 1
param **.sink_132.app[0].typename "\"TcpGenericServerApp\""
param **.sink_132.app[0].localAddress "\"\""
param **.sink_132.app[0].localPort 1100
param **.sink_132.app[0].replyDelay 0s
param **.sink_133.numApps 1
param **.sink_133.app[0].typename "\"TcpGenericServerApp\""
param **.sink_133.app[0].localAddress "\"\""
param **.sink_133.app[0].localPort 1100
param **.sink_133.app[0].replyDelay 0s
param **.sink_134.numApps 1
param **.sink_134.app[0].typename "\"TcpGenericServerApp\""
param **.sink_134.app[0].localAddress "\"\""
param **.sink_134.app[0].localPort 1100
param **.sink_134.app[0].replyDelay 0s
param **.sink_135.numApps 1
param **.sink_135.app[0].typename "\"TcpGenericServerApp\""
param **.sink_135.app[0].localAddress "\"\""
param **.sink_135.app[0].localPort 1100
param **.sink_135.app[0].replyDelay 0s
param **.sink_136.numApps 1
param **.sink_136.app[0].typename "\"TcpGenericServerApp\""
param **.sink_136.app[0].localAddress "\"\""
param **.sink_136.app[0].localPort 1100
param **.sink_136.app[0].replyDelay 0s
param **.sink_137.numApps 1
param **.sink_137.app[0].typename "\"TcpGenericServerApp\""
param **.sink_137.app[0].localAddress "\"\""
param **.sink_137.app[0].localPort 1100
param **.sink_137.app[0].replyDelay 0s
param **.sink_138.numApps 1
param **.sink_138.app[0].typename "\"TcpGenericServerApp\""
param **.sink_138.app[0].localAddress "\"\""
param **.sink_138.app[0].localPort 1100
param **.sink_138.app[0].replyDelay 0s
param **.sink_139.numApps 1
param **.sink_139.app[0].typename "\"TcpGenericServerApp\""
param **.sink_139.app[0].localAddress "\"\""
param **.sink_139.app[0].localPort 1100
param **.sink_139.app[0].replyDelay 0s
param **.sink_140.numApps 1
param **.sink_140.app[0].typename "\"TcpGenericServerApp\""
param **.sink_140.app[0].localAddress "\"\""
param **.sink_140.app[0].localPort 1100
param **.sink_140.app[0].replyDelay 0s
param **.sink_141.numApps 1
param **.sink_141.app[0].typename "\"TcpGenericServerApp\""
param **.sink_141.app[0].localAddress "\"\""
param **.sink_141.app[0].localPort 1100
param **.sink_141.app[0].replyDelay 0s
param **.sink_142.numApps 1
param **.sink_142.app[0].typename "\"TcpGenericServerApp\""
param **.sink_142.app[0].localAddress "\"\""
param **.sink_142.app[0].localPort 1100
param **.sink_142.app[0].replyDelay 0s
param **.sink_143.numApps 1
param **.sink_143.app[0].typename "\"TcpGenericServerApp\""
param **.sink_143.app[0].localAddress "\"\""
param **.sink_143.app[0].localPort 1100
param **.sink_143.app[0].replyDelay 0s
param **.sink_144.numApps 1
param **.sink_144.app[0].typename "\"TcpGenericServerApp\""
param **.sink_144.app[0].localAddress "\"\""
param **.sink_144.app[0].localPort 1100
param **.sink_144.app[0].replyDelay 0s
param **.sink_145.numApps 1
param **.sink_145.app[0].typename "\"TcpGenericServerApp\""
param **.sink_145.app[0].localAddress "\"\""
param **.sink_145.app[0].localPort 1100
param **.sink_145.app[0].replyDelay 0s
param **.sink_146.numApps 1
param **.sink_146.app[0].typename "\"TcpGenericServerApp\""
param **.sink_146.app[0].localAddress "\"\""
param **.sink_146.app[0].localPort 1100
param **.sink_146.app[0].replyDelay 0s
param **.sink_147.numApps 1
param **.sink_147.app[0].typename "\"TcpGenericServerApp\""
param **.sink_147.app[0].localAddress "\"\""
param **.sink_147.app[0].localPort 1100
param **.sink_147.app[0].replyDelay 0s
param **.sink_148.numApps 1
param **.sink_148.app[0].typename "\"TcpGenericServerApp\""
param **.sink_148.app[0].localAddress "\"\""
param **.sink_148.app[0].localPort 1100
param **.sink_148.app[0].replyDelay 0s
param **.sink_149.numApps 1
param **.sink_149.app[0].typename "\"TcpGenericServerApp\""
param **.sink_149.app[0].localAddress "\"\""
param **.sink_149.app[0].localPort 1100
param **.sink_149.app[0].replyDelay 0s
param **.sink_150.numApps 1
param **.sink_150.app[0].typename "\"TcpGenericServerApp\""
param **.sink_150.app[0].localAddress "\"\""
param **.sink_150.app[0].localPort 1100
param **.sink_150.app[0].replyDelay 0s
param **.sink_151.numApps 1
param **.sink_151.app[0].typename "\"TcpGenericServerApp\""
param **.sink_151.app[0].localAddress "\"\""
param **.sink_151.app[0].localPort 1100
param **.sink_151.app[0].replyDelay 0s
param **.sink_152.numApps 1
param **.sink_152.app[0].typename "\"TcpGenericServerApp\""
param **.sink_152.app[0].localAddress "\"\""
param **.sink_152.app[0].localPort 1100
param **.sink_152.app[0].replyDelay 0s
param **.sink_153.numApps 1
param **.sink_153.app[0].typename "\"TcpGenericServerApp\""
param **.sink_153.app[0].localAddress "\"\""
param **.sink_153.app[0].localPort 1100
param **.sink_153.app[0].replyDelay 0s
param **.sink_154.numApps 1
param **.sink_154.app[0].typename "\"TcpGenericServerApp\""
param **.sink_154.app[0].localAddress "\"\""
param **.sink_154.app[0].localPort 1100
param **.sink_154.app[0].replyDelay 0s
param **.sink_155.numApps 1
param **.sink_155.app[0].typename "\"TcpGenericServerApp\""
param **.sink_155.app[0].localAddress "\"\""
param **.sink_155.app[0].localPort 1100
param **.sink_155.app[0].replyDelay 0s
param **.sink_156.numApps 1
param **.sink_156.app[0].typename "\"TcpGenericServerApp\""
param **.sink_156.app[0].localAddress "\"\""
param **.sink_156.app[0].localPort 1100
param **.sink_156.app[0].replyDelay 0s
param **.sink_157.numApps 1
param **.sink_157.app[0].typename "\"TcpGenericServerApp\""
param **.sink_157.app[0].localAddress "\"\""
param **.sink_157.app[0].localPort 1100
param **.sink_157.app[0].replyDelay 0s
param **.sink_158.numApps 1
param **.sink_158.app[0].typename "\"TcpGenericServerApp\""
param **.sink_158.app[0].localAddress "\"\""
param **.sink_158.app[0].localPort 1100
param **.sink_158.app[0].replyDelay 0s
param **.sink_159.numApps 1
param **.sink_159.app[0].typename "\"TcpGenericServerApp\""
param **.sink_159.app[0].localAddress "\"\""
param **.sink_159.app[0].localPort 1100
param **.sink_159.app[0].replyDelay 0s
param **.sink_160.numApps 1
param **.sink_160.app[0].typename "\"TcpGenericServerApp\""
param **.sink_160.app[0].localAddress "\"\""
param **.sink_160.app[0].localPort 1100
param **.sink_160.app[0].replyDelay 0s
param **.sink_161.numApps 1
param **.sink_161.app[0].typename "\"TcpGenericServerApp\""
param **.sink_161.app[0].localAddress "\"\""
param **.sink_161.app[0].localPort 1100
param **.sink_161.app[0].replyDelay 0s
param **.sink_162.numApps 1
param **.sink_162.app[0].typename "\"TcpGenericServerApp\""
param **.sink_162.app[0].localAddress "\"\""
param **.sink_162.app[0].localPort 1100
param **.sink_162.app[0].replyDelay 0s
param **.sink_163.numApps 1
param **.sink_163.app[0].typename "\"TcpGenericServerApp\""
param **.sink_163.app[0].localAddress "\"\""
param **.sink_163.app[0].localPort 1100
param **.sink_163.app[0].replyDelay 0s
param **.sink_164.numApps 1
param **.sink_164.app[0].typename "\"TcpGenericServerApp\""
param **.sink_164.app[0].localAddress "\"\""
param **.sink_164.app[0].localPort 1100
param **.sink_164.app[0].replyDelay 0s
param **.sink_165.numApps 1
param **.sink_165.app[0].typename "\"TcpGenericServerApp\""
param **.sink_165.app[0].localAddress "\"\""
param **.sink_165.app[0].localPort 1100
param **.sink_165.app[0].replyDelay 0s
param **.sink_166.numApps 1
param **.sink_166.app[0].typename "\"TcpGenericServerApp\""
param **.sink_166.app[0].localAddress "\"\""
param **.sink_166.app[0].localPort 1100
param **.sink_166.app[0].replyDelay 0s
param **.sink_167.numApps 1
param **.sink_167.app[0].typename "\"TcpGenericServerApp\""
param **.sink_167.app[0].localAddress "\"\""
param **.sink_167.app[0].localPort 1100
param **.sink_167.app[0].replyDelay 0s
param **.sink_168.numApps 1
param **.sink_168.app[0].typename "\"TcpGenericServerApp\""
param **.sink_168.app[0].localAddress "\"\""
param **.sink_168.app[0].localPort 1100
param **.sink_168.app[0].replyDelay 0s
param **.sink_169.numApps 1
param **.sink_169.app[0].typename "\"TcpGenericServerApp\""
param **.sink_169.app[0].localAddress "\"\""
param **.sink_169.app[0].localPort 1100
param **.sink_169.app[0].replyDelay 0s
param **.sink_170.numApps 1
param **.sink_170.app[0].typename "\"TcpGenericServerApp\""
param **.sink_170.app[0].localAddress "\"\""
param **.sink_170.app[0].localPort 1100
param **.sink_170.app[0].replyDelay 0s
param **.sink_171.numApps 1
param **.sink_171.app[0].typename "\"TcpGenericServerApp\""
param **.sink_171.app[0].localAddress "\"\""
param **.sink_171.app[0].localPort 1100
param **.sink_171.app[0].replyDelay 0s
param **.sink_172.numApps 1
param **.sink_172.app[0].typename "\"TcpGenericServerApp\""
param **.sink_172.app[0].localAddress "\"\""
param **.sink_172.app[0].localPort 1100
param **.sink_172.app[0].replyDelay 0s
param **.sink_173.numApps 1
param **.sink_173.app[0].typename "\"TcpGenericServerApp\""
param **.sink_173.app[0].localAddress "\"\""
param **.sink_173.app[0].localPort 1100
param **.sink_173.app[0].replyDelay 0s
param **.sink_174.numApps 1
param **.sink_174.app[0].typename "\"TcpGenericServerApp\""
param **.sink_174.app[0].localAddress "\"\""
param **.sink_174.app[0].localPort 1100
param **.sink_174.app[0].replyDelay 0s
param **.sink_175.numApps 1
param **.sink_175.app[0].typename "\"TcpGenericServerApp\""
param **.sink_175.app[0].localAddress "\"\""
param **.sink_175.app[0].localPort 1100
param **.sink_175.app[0].replyDelay 0s
param **.sink_176.numApps 1
param **.sink_176.app[0].typename "\"TcpGenericServerApp\""
param **.sink_176.app[0].localAddress "\"\""
param **.sink_176.app[0].localPort 1100
param **.sink_176.app[0].replyDelay 0s
param **.sink_177.numApps 1
param **.sink_177.app[0].typename "\"TcpGenericServerApp\""
param **.sink_177.app[0].localAddress "\"\""
param **.sink_177.app[0].localPort 1100
param **.sink_177.app[0].replyDelay 0s
param **.sink_178.numApps 1
param **.sink_178.app[0].typename "\"TcpGenericServerApp\""
param **.sink_178.app[0].localAddress "\"\""
param **.sink_178.app[0].localPort 1100
param **.sink_178.app[0].replyDelay 0s
param **.sink_179.numApps 1
param **.sink_179.app[0].typename "\"TcpGenericServerApp\""
param **.sink_179.app[0].localAddress "\"\""
param **.sink_179.app[0].localPort 1100
param **.sink_179.app[0].replyDelay 0s
param **.sink_180.numApps 1
param **.sink_180.app[0].typename "\"TcpGenericServerApp\""
param **.sink_180.app[0].localAddress "\"\""
param **.sink_180.app[0].localPort 1100
param **.sink_180.app[0].replyDelay 0s
param **.sink_181.numApps 1
param **.sink_181.app[0].typename "\"TcpGenericServerApp\""
param **.sink_181.app[0].localAddress "\"\""
param **.sink_181.app[0].localPort 1100
param **.sink_181.app[0].replyDelay 0s
param **.sink_182.numApps 1
param **.sink_182.app[0].typename "\"TcpGenericServerApp\""
param **.sink_182.app[0].localAddress "\"\""
param **.sink_182.app[0].localPort 1100
param **.sink_182.app[0].replyDelay 0s
param **.sink_183.numApps 1
param **.sink_183.app[0].typename "\"TcpGenericServerApp\""
param **.sink_183.app[0].localAddress "\"\""
param **.sink_183.app[0].localPort 1100
param **.sink_183.app[0].replyDelay 0s
param **.sink_184.numApps 1
param **.sink_184.app[0].typename "\"TcpGenericServerApp\""
param **.sink_184.app[0].localAddress "\"\""
param **.sink_184.app[0].localPort 1100
param **.sink_184.app[0].replyDelay 0s
param **.sink_185.numApps 1
param **.sink_185.app[0].typename "\"TcpGenericServerApp\""
param **.sink_185.app[0].localAddress "\"\""
param **.sink_185.app[0].localPort 1100
param **.sink_185.app[0].replyDelay 0s
param **.sink_186.numApps 1
param **.sink_186.app[0].typename "\"TcpGenericServerApp\""
param **.sink_186.app[0].localAddress "\"\""
param **.sink_186.app[0].localPort 1100
param **.sink_186.app[0].replyDelay 0s
param **.sink_187.numApps 1
param **.sink_187.app[0].typename "\"TcpGenericServerApp\""
param **.sink_187.app[0].localAddress "\"\""
param **.sink_187.app[0].localPort 1100
param **.sink_187.app[0].replyDelay 0s
param **.sink_188.numApps 1
param **.sink_188.app[0].typename "\"TcpGenericServerApp\""
param **.sink_188.app[0].localAddress "\"\""
param **.sink_188.app[0].localPort 1100
param **.sink_188.app[0].replyDelay 0s
param **.sink_189.numApps 1
param **.sink_189.app[0].typename "\"TcpGenericServerApp\""
param **.sink_189.app[0].localAddress "\"\""
param **.sink_189.app[0].localPort 1100
param **.sink_189.app[0].replyDelay 0s
param **.sink_190.numApps 1
param **.sink_190.app[0].typename "\"TcpGenericServerApp\""
param **.sink_190.app[0].localAddress "\"\""
param **.sink_190.app[0].localPort 1100
param **.sink_190.app[0].replyDelay 0s
param **.sink_191.numApps 1
param **.sink_191.app[0].typename "\"TcpGenericServerApp\""
param **.sink_191.app[0].localAddress "\"\""
param **.sink_191.app[0].localPort 1100
param **.sink_191.app[0].replyDelay 0s
param **.sink_192.numApps 1
param **.sink_192.app[0].typename "\"TcpGenericServerApp\""
param **.sink_192.app[0].localAddress "\"\""
param **.sink_192.app[0].localPort 1100
param **.sink_192.app[0].replyDelay 0s
param **.sink_193.numApps 1
param **.sink_193.app[0].typename "\"TcpGenericServerApp\""
param **.sink_193.app[0].localAddress "\"\""
param **.sink_193.app[0].localPort 1100
param **.sink_193.app[0].replyDelay 0s
param **.sink_194.numApps 1
param **.sink_194.app[0].typename "\"TcpGenericServerApp\""
param **.sink_194.app[0].localAddress "\"\""
param **.sink_194.app[0].localPort 1100
param **.sink_194.app[0].replyDelay 0s
param **.sink_195.numApps 1
param **.sink_195.app[0].typename "\"TcpGenericServerApp\""
param **.sink_195.app[0].localAddress "\"\""
param **.sink_195.app[0].localPort 1100
param **.sink_195.app[0].replyDelay 0s
param **.sink_196.numApps 1
param **.sink_196.app[0].typename "\"TcpGenericServerApp\""
param **.sink_196.app[0].localAddress "\"\""
param **.sink_196.app[0].localPort 1100
param **.sink_196.app[0].replyDelay 0s
param **.sink_197.numApps 1
param **.sink_197.app[0].typename "\"TcpGenericServerApp\""
param **.sink_197.app[0].localAddress "\"\""
param **.sink_197.app[0].localPort 1100
param **.sink_197.app[0].replyDelay 0s
param **.sink_198.numApps 1
param **.sink_198.app[0].typename "\"TcpGenericServerApp\""
param **.sink_198.app[0].localAddress "\"\""
param **.sink_198.app[0].localPort 1100
param **.sink_198.app[0].replyDelay 0s
param **.sink_199.numApps 1
param **.sink_199.app[0].typename "\"TcpGenericServerApp\""
param **.sink_199.app[0].localAddress "\"\""
param **.sink_199.app[0].localPort 1100
param **.sink_199.app[0].replyDelay 0s
param **.sink_200.numApps 1
param **.sink_200.app[0].typename "\"TcpGenericServerApp\""
param **.sink_200.app[0].localAddress "\"\""
param **.sink_200.app[0].localPort 1100
param **.sink_200.app[0].replyDelay 0s
param **.sink_201.numApps 1
param **.sink_201.app[0].typename "\"TcpGenericServerApp\""
param **.sink_201.app[0].localAddress "\"\""
param **.sink_201.app[0].localPort 1100
param **.sink_201.app[0].replyDelay 0s
param **.sink_202.numApps 1
param **.sink_202.app[0].typename "\"TcpGenericServerApp\""
param **.sink_202.app[0].localAddress "\"\""
param **.sink_202.app[0].localPort 1100
param **.sink_202.app[0].replyDelay 0s
param **.sink_203.numApps 1
param **.sink_203.app[0].typename "\"TcpGenericServerApp\""
param **.sink_203.app[0].localAddress "\"\""
param **.sink_203.app[0].localPort 1100
param **.sink_203.app[0].replyDelay 0s
param **.sink_204.numApps 1
param **.sink_204.app[0].typename "\"TcpGenericServerApp\""
param **.sink_204.app[0].localAddress "\"\""
param **.sink_204.app[0].localPort 1100
param **.sink_204.app[0].replyDelay 0s
param **.sink_205.numApps 1
param **.sink_205.app[0].typename "\"TcpGenericServerApp\""
param **.sink_205.app[0].localAddress "\"\""
param **.sink_205.app[0].localPort 1100
param **.sink_205.app[0].replyDelay 0s
param **.sink_206.numApps 1
param **.sink_206.app[0].typename "\"TcpGenericServerApp\""
param **.sink_206.app[0].localAddress "\"\""
param **.sink_206.app[0].localPort 1100
param **.sink_206.app[0].replyDelay 0s
param **.sink_207.numApps 1
param **.sink_207.app[0].typename "\"TcpGenericServerApp\""
param **.sink_207.app[0].localAddress "\"\""
param **.sink_207.app[0].localPort 1100
param **.sink_207.app[0].replyDelay 0s
param **.sink_208.numApps 1
param **.sink_208.app[0].typename "\"TcpGenericServerApp\""
param **.sink_208.app[0].localAddress "\"\""
param **.sink_208.app[0].localPort 1100
param **.sink_208.app[0].replyDelay 0s
param **.sink_209.numApps 1
param **.sink_209.app[0].typename "\"TcpGenericServerApp\""
param **.sink_209.app[0].localAddress "\"\""
param **.sink_209.app[0].localPort 1100
param **.sink_209.app[0].replyDelay 0s
param **.sink_210.numApps 1
param **.sink_210.app[0].typename "\"TcpGenericServerApp\""
param **.sink_210.app[0].localAddress "\"\""
param **.sink_210.app[0].localPort 1100
param **.sink_210.app[0].replyDelay 0s
param **.sink_211.numApps 1
param **.sink_211.app[0].typename "\"TcpGenericServerApp\""
param **.sink_211.app[0].localAddress "\"\""
param **.sink_211.app[0].localPort 1100
param **.sink_211.app[0].replyDelay 0s
param **.sink_212.numApps 1
param **.sink_212.app[0].typename "\"TcpGenericServerApp\""
param **.sink_212.app[0].localAddress "\"\""
param **.sink_212.app[0].localPort 1100
param **.sink_212.app[0].replyDelay 0s
param **.sink_213.numApps 1
param **.sink_213.app[0].typename "\"TcpGenericServerApp\""
param **.sink_213.app[0].localAddress "\"\""
param **.sink_213.app[0].localPort 1100
param **.sink_213.app[0].replyDelay 0s
param **.sink_214.numApps 1
param **.sink_214.app[0].typename "\"TcpGenericServerApp\""
param **.sink_214.app[0].localAddress "\"\""
param **.sink_214.app[0].localPort 1100
param **.sink_214.app[0].replyDelay 0s
param **.sink_215.numApps 1
param **.sink_215.app[0].typename "\"TcpGenericServerApp\""
param **.sink_215.app[0].localAddress "\"\""
param **.sink_215.app[0].localPort 1100
param **.sink_215.app[0].replyDelay 0s
param **.sink_216.numApps 1
param **.sink_216.app[0].typename "\"TcpGenericServerApp\""
param **.sink_216.app[0].localAddress "\"\""
param **.sink_216.app[0].localPort 1100
param **.sink_216.app[0].replyDelay 0s
param **.sink_217.numApps 1
param **.sink_217.app[0].typename "\"TcpGenericServerApp\""
param **.sink_217.app[0].localAddress "\"\""
param **.sink_217.app[0].localPort 1100
param **.sink_217.app[0].replyDelay 0s
param **.sink_218.numApps 1
param **.sink_218.app[0].typename "\"TcpGenericServerApp\""
param **.sink_218.app[0].localAddress "\"\""
param **.sink_218.app[0].localPort 1100
param **.sink_218.app[0].replyDelay 0s
param **.sink_219.numApps 1
param **.sink_219.app[0].typename "\"TcpGenericServerApp\""
param **.sink_219.app[0].localAddress "\"\""
param **.sink_219.app[0].localPort 1100
param **.sink_219.app[0].replyDelay 0s
param **.sink_220.numApps 1
param **.sink_220.app[0].typename "\"TcpGenericServerApp\""
param **.sink_220.app[0].localAddress "\"\""
param **.sink_220.app[0].localPort 1100
param **.sink_220.app[0].replyDelay 0s
param **.sink_221.numApps 1
param **.sink_221.app[0].typename "\"TcpGenericServerApp\""
param **.sink_221.app[0].localAddress "\"\""
param **.sink_221.app[0].localPort 1100
param **.sink_221.app[0].replyDelay 0s
param **.sink_222.numApps 1
param **.sink_222.app[0].typename "\"TcpGenericServerApp\""
param **.sink_222.app[0].localAddress "\"\""
param **.sink_222.app[0].localPort 1100
param **.sink_222.app[0].replyDelay 0s
param **.sink_223.numApps 1
param **.sink_223.app[0].typename "\"TcpGenericServerApp\""
param **.sink_223.app[0].localAddress "\"\""
param **.sink_223.app[0].localPort 1100
param **.sink_223.app[0].replyDelay 0s
param **.sink_224.numApps 1
param **.sink_224.app[0].typename "\"TcpGenericServerApp\""
param **.sink_224.app[0].localAddress "\"\""
param **.sink_224.app[0].localPort 1100
param **.sink_224.app[0].replyDelay 0s
param **.sink_225.numApps 1
param **.sink_225.app[0].typename "\"TcpGenericServerApp\""
param **.sink_225.app[0].localAddress "\"\""
param **.sink_225.app[0].localPort 1100
param **.sink_225.app[0].replyDelay 0s
param **.sink_226.numApps 1
param **.sink_226.app[0].typename "\"TcpGenericServerApp\""
param **.sink_226.app[0].localAddress "\"\""
param **.sink_226.app[0].localPort 1100
param **.sink_226.app[0].replyDelay 0s
param **.sink_227.numApps 1
param **.sink_227.app[0].typename "\"TcpGenericServerApp\""
param **.sink_227.app[0].localAddress "\"\""
param **.sink_227.app[0].localPort 1100
param **.sink_227.app[0].replyDelay 0s
param **.sink_228.numApps 1
param **.sink_228.app[0].typename "\"TcpGenericServerApp\""
param **.sink_228.app[0].localAddress "\"\""
param **.sink_228.app[0].localPort 1100
param **.sink_228.app[0].replyDelay 0s
param **.sink_229.numApps 1
param **.sink_229.app[0].typename "\"TcpGenericServerApp\""
param **.sink_229.app[0].localAddress "\"\""
param **.sink_229.app[0].localPort 1100
param **.sink_229.app[0].replyDelay 0s
param **.sink_230.numApps 1
param **.sink_230.app[0].typename "\"TcpGenericServerApp\""
param **.sink_230.app[0].localAddress "\"\""
param **.sink_230.app[0].localPort 1100
param **.sink_230.app[0].replyDelay 0s
param **.sink_231.numApps 1
param **.sink_231.app[0].typename "\"TcpGenericServerApp\""
param **.sink_231.app[0].localAddress "\"\""
param **.sink_231.app[0].localPort 1100
param **.sink_231.app[0].replyDelay 0s
param **.sink_232.numApps 1
param **.sink_232.app[0].typename "\"TcpGenericServerApp\""
param **.sink_232.app[0].localAddress "\"\""
param **.sink_232.app[0].localPort 1100
param **.sink_232.app[0].replyDelay 0s
param **.sink_233.numApps 1
param **.sink_233.app[0].typename "\"TcpGenericServerApp\""
param **.sink_233.app[0].localAddress "\"\""
param **.sink_233.app[0].localPort 1100
param **.sink_233.app[0].replyDelay 0s
param **.sink_234.numApps 1
param **.sink_234.app[0].typename "\"TcpGenericServerApp\""
param **.sink_234.app[0].localAddress "\"\""
param **.sink_234.app[0].localPort 1100
param **.sink_234.app[0].replyDelay 0s
param **.sink_235.numApps 1
param **.sink_235.app[0].typename "\"TcpGenericServerApp\""
param **.sink_235.app[0].localAddress "\"\""
param **.sink_235.app[0].localPort 1100
param **.sink_235.app[0].replyDelay 0s
param **.sink_236.numApps 1
param **.sink_236.app[0].typename "\"TcpGenericServerApp\""
param **.sink_236.app[0].localAddress "\"\""
param **.sink_236.app[0].localPort 1100
param **.sink_236.app[0].replyDelay 0s
param **.sink_237.numApps 1
param **.sink_237.app[0].typename "\"TcpGenericServerApp\""
param **.sink_237.app[0].localAddress "\"\""
param **.sink_237.app[0].localPort 1100
param **.sink_237.app[0].replyDelay 0s
param **.sink_238.numApps 1
param **.sink_238.app[0].typename "\"TcpGenericServerApp\""
param **.sink_238.app[0].localAddress "\"\""
param **.sink_238.app[0].localPort 1100
param **.sink_238.app[0].replyDelay 0s
param **.sink_239.numApps 1
param **.sink_239.app[0].typename "\"TcpGenericServerApp\""
param **.sink_239.app[0].localAddress "\"\""
param **.sink_239.app[0].localPort 1100
param **.sink_239.app[0].replyDelay 0s
param **.sink_240.numApps 1
param **.sink_240.app[0].typename "\"TcpGenericServerApp\""
param **.sink_240.app[0].localAddress "\"\""
param **.sink_240.app[0].localPort 1100
param **.sink_240.app[0].replyDelay 0s
param **.sink_241.numApps 1
param **.sink_241.app[0].typename "\"TcpGenericServerApp\""
param **.sink_241.app[0].localAddress "\"\""
param **.sink_241.app[0].localPort 1100
param **.sink_241.app[0].replyDelay 0s
param **.sink_242.numApps 1
param **.sink_242.app[0].typename "\"TcpGenericServerApp\""
param **.sink_242.app[0].localAddress "\"\""
param **.sink_242.app[0].localPort 1100
param **.sink_242.app[0].replyDelay 0s
param **.sink_243.numApps 1
param **.sink_243.app[0].typename "\"TcpGenericServerApp\""
param **.sink_243.app[0].localAddress "\"\""
param **.sink_243.app[0].localPort 1100
param **.sink_243.app[0].replyDelay 0s
param **.sink_244.numApps 1
param **.sink_244.app[0].typename "\"TcpGenericServerApp\""
param **.sink_244.app[0].localAddress "\"\""
param **.sink_244.app[0].localPort 1100
param **.sink_244.app[0].replyDelay 0s
param **.sink_245.numApps 1
param **.sink_245.app[0].typename "\"TcpGenericServerApp\""
param **.sink_245.app[0].localAddress "\"\""
param **.sink_245.app[0].localPort 1100
param **.sink_245.app[0].replyDelay 0s
param **.sink_246.numApps 1
param **.sink_246.app[0].typename "\"TcpGenericServerApp\""
param **.sink_246.app[0].localAddress "\"\""
param **.sink_246.app[0].localPort 1100
param **.sink_246.app[0].replyDelay 0s
param **.sink_247.numApps 1
param **.sink_247.app[0].typename "\"TcpGenericServerApp\""
param **.sink_247.app[0].localAddress "\"\""
param **.sink_247.app[0].localPort 1100
param **.sink_247.app[0].replyDelay 0s
param **.sink_248.numApps 1
param **.sink_248.app[0].typename "\"TcpGenericServerApp\""
param **.sink_248.app[0].localAddress "\"\""
param **.sink_248.app[0].localPort 1100
param **.sink_248.app[0].replyDelay 0s
param **.sink_249.numApps 1
param **.sink_249.app[0].typename "\"TcpGenericServerApp\""
param **.sink_249.app[0].localAddress "\"\""
param **.sink_249.app[0].localPort 1100
param **.sink_249.app[0].replyDelay 0s
param **.sink_250.numApps 1
param **.sink_250.app[0].typename "\"TcpGenericServerApp\""
param **.sink_250.app[0].localAddress "\"\""
param **.sink_250.app[0].localPort 1100
param **.sink_250.app[0].replyDelay 0s
param **.sink_251.numApps 1
param **.sink_251.app[0].typename "\"TcpGenericServerApp\""
param **.sink_251.app[0].localAddress "\"\""
param **.sink_251.app[0].localPort 1100
param **.sink_251.app[0].replyDelay 0s
param **.sink_252.numApps 1
param **.sink_252.app[0].typename "\"TcpGenericServerApp\""
param **.sink_252.app[0].localAddress "\"\""
param **.sink_252.app[0].localPort 1100
param **.sink_252.app[0].replyDelay 0s
param **.sink_253.numApps 1
param **.sink_253.app[0].typename "\"TcpGenericServerApp\""
param **.sink_253.app[0].localAddress "\"\""
param **.sink_253.app[0].localPort 1100
param **.sink_253.app[0].replyDelay 0s
param **.sink_254.numApps 1
param **.sink_254.app[0].typename "\"TcpGenericServerApp\""
param **.sink_254.app[0].localAddress "\"\""
param **.sink_254.app[0].localPort 1100
param **.sink_254.app[0].replyDelay 0s
param **.sink_255.numApps 1
param **.sink_255.app[0].typename "\"TcpGenericServerApp\""
param **.sink_255.app[0].localAddress "\"\""
param **.sink_255.app[0].localPort 1100
param **.sink_255.app[0].replyDelay 0s
param **.sink_256.numApps 1
param **.sink_256.app[0].typename "\"TcpGenericServerApp\""
param **.sink_256.app[0].localAddress "\"\""
param **.sink_256.app[0].localPort 1100
param **.sink_256.app[0].replyDelay 0s
param **.sink_257.numApps 1
param **.sink_257.app[0].typename "\"TcpGenericServerApp\""
param **.sink_257.app[0].localAddress "\"\""
param **.sink_257.app[0].localPort 1100
param **.sink_257.app[0].replyDelay 0s
param **.sink_258.numApps 1
param **.sink_258.app[0].typename "\"TcpGenericServerApp\""
param **.sink_258.app[0].localAddress "\"\""
param **.sink_258.app[0].localPort 1100
param **.sink_258.app[0].replyDelay 0s
param **.sink_259.numApps 1
param **.sink_259.app[0].typename "\"TcpGenericServerApp\""
param **.sink_259.app[0].localAddress "\"\""
param **.sink_259.app[0].localPort 1100
param **.sink_259.app[0].replyDelay 0s
param **.sink_260.numApps 1
param **.sink_260.app[0].typename "\"TcpGenericServerApp\""
param **.sink_260.app[0].localAddress "\"\""
param **.sink_260.app[0].localPort 1100
param **.sink_260.app[0].replyDelay 0s
param **.sink_261.numApps 1
param **.sink_261.app[0].typename "\"TcpGenericServerApp\""
param **.sink_261.app[0].localAddress "\"\""
param **.sink_261.app[0].localPort 1100
param **.sink_261.app[0].replyDelay 0s
param **.sink_262.numApps 1
param **.sink_262.app[0].typename "\"TcpGenericServerApp\""
param **.sink_262.app[0].localAddress "\"\""
param **.sink_262.app[0].localPort 1100
param **.sink_262.app[0].replyDelay 0s
param **.sink_263.numApps 1
param **.sink_263.app[0].typename "\"TcpGenericServerApp\""
param **.sink_263.app[0].localAddress "\"\""
param **.sink_263.app[0].localPort 1100
param **.sink_263.app[0].replyDelay 0s
param **.sink_264.numApps 1
param **.sink_264.app[0].typename "\"TcpGenericServerApp\""
param **.sink_264.app[0].localAddress "\"\""
param **.sink_264.app[0].localPort 1100
param **.sink_264.app[0].replyDelay 0s
param **.sink_265.numApps 1
param **.sink_265.app[0].typename "\"TcpGenericServerApp\""
param **.sink_265.app[0].localAddress "\"\""
param **.sink_265.app[0].localPort 1100
param **.sink_265.app[0].replyDelay 0s
param **.sink_266.numApps 1
param **.sink_266.app[0].typename "\"TcpGenericServerApp\""
param **.sink_266.app[0].localAddress "\"\""
param **.sink_266.app[0].localPort 1100
param **.sink_266.app[0].replyDelay 0s
param **.sink_267.numApps 1
param **.sink_267.app[0].typename "\"TcpGenericServerApp\""
param **.sink_267.app[0].localAddress "\"\""
param **.sink_267.app[0].localPort 1100
param **.sink_267.app[0].replyDelay 0s
param **.sink_268.numApps 1
param **.sink_268.app[0].typename "\"TcpGenericServerApp\""
param **.sink_268.app[0].localAddress "\"\""
param **.sink_268.app[0].localPort 1100
param **.sink_268.app[0].replyDelay 0s
param **.sink_269.numApps 1
param **.sink_269.app[0].typename "\"TcpGenericServerApp\""
param **.sink_269.app[0].localAddress "\"\""
param **.sink_269.app[0].localPort 1100
param **.sink_269.app[0].replyDelay 0s
param **.sink_270.numApps 1
param **.sink_270.app[0].typename "\"TcpGenericServerApp\""
param **.sink_270.app[0].localAddress "\"\""
param **.sink_270.app[0].localPort 1100
param **.sink_270.app[0].replyDelay 0s
param **.sink_271.numApps 1
param **.sink_271.app[0].typename "\"TcpGenericServerApp\""
param **.sink_271.app[0].localAddress "\"\""
param **.sink_271.app[0].localPort 1100
param **.sink_271.app[0].replyDelay 0s
param **.sink_272.numApps 1
param **.sink_272.app[0].typename "\"TcpGenericServerApp\""
param **.sink_272.app[0].localAddress "\"\""
param **.sink_272.app[0].localPort 1100
param **.sink_272.app[0].replyDelay 0s
param **.sink_273.numApps 1
param **.sink_273.app[0].typename "\"TcpGenericServerApp\""
param **.sink_273.app[0].localAddress "\"\""
param **.sink_273.app[0].localPort 1100
param **.sink_273.app[0].replyDelay 0s
param **.sink_274.numApps 1
param **.sink_274.app[0].typename "\"TcpGenericServerApp\""
param **.sink_274.app[0].localAddress "\"\""
param **.sink_274.app[0].localPort 1100
param **.sink_274.app[0].replyDelay 0s
param **.sink_275.numApps 1
param **.sink_275.app[0].typename "\"TcpGenericServerApp\""
param **.sink_275.app[0].localAddress "\"\""
param **.sink_275.app[0].localPort 1100
param **.sink_275.app[0].replyDelay 0s
param **.sink_276.numApps 1
param **.sink_276.app[0].typename "\"TcpGenericServerApp\""
param **.sink_276.app[0].localAddress "\"\""
param **.sink_276.app[0].localPort 1100
param **.sink_276.app[0].replyDelay 0s
param **.sink_277.numApps 1
param **.sink_277.app[0].typename "\"TcpGenericServerApp\""
param **.sink_277.app[0].localAddress "\"\""
param **.sink_277.app[0].localPort 1100
param **.sink_277.app[0].replyDelay 0s
param **.sink_278.numApps 1
param **.sink_278.app[0].typename "\"TcpGenericServerApp\""
param **.sink_278.app[0].localAddress "\"\""
param **.sink_278.app[0].localPort 1100
param **.sink_278.app[0].replyDelay 0s
param **.sink_279.numApps 1
param **.sink_279.app[0].typename "\"TcpGenericServerApp\""
param **.sink_279.app[0].localAddress "\"\""
param **.sink_279.app[0].localPort 1100
param **.sink_279.app[0].replyDelay 0s
param **.sink_280.numApps 1
param **.sink_280.app[0].typename "\"TcpGenericServerApp\""
param **.sink_280.app[0].localAddress "\"\""
param **.sink_280.app[0].localPort 1100
param **.sink_280.app[0].replyDelay 0s
param **.sink_281.numApps 1
param **.sink_281.app[0].typename "\"TcpGenericServerApp\""
param **.sink_281.app[0].localAddress "\"\""
param **.sink_281.app[0].localPort 1100
param **.sink_281.app[0].replyDelay 0s
param **.sink_282.numApps 1
param **.sink_282.app[0].typename "\"TcpGenericServerApp\""
param **.sink_282.app[0].localAddress "\"\""
param **.sink_282.app[0].localPort 1100
param **.sink_282.app[0].replyDelay 0s
param **.sink_283.numApps 1
param **.sink_283.app[0].typename "\"TcpGenericServerApp\""
param **.sink_283.app[0].localAddress "\"\""
param **.sink_283.app[0].localPort 1100
param **.sink_283.app[0].replyDelay 0s
param **.sink_284.numApps 1
param **.sink_284.app[0].typename "\"TcpGenericServerApp\""
param **.sink_284.app[0].localAddress "\"\""
param **.sink_284.app[0].localPort 1100
param **.sink_284.app[0].replyDelay 0s
param **.sink_285.numApps 1
param **.sink_285.app[0].typename "\"TcpGenericServerApp\""
param **.sink_285.app[0].localAddress "\"\""
param **.sink_285.app[0].localPort 1100
param **.sink_285.app[0].replyDelay 0s
param **.sink_286.numApps 1
param **.sink_286.app[0].typename "\"TcpGenericServerApp\""
param **.sink_286.app[0].localAddress "\"\""
param **.sink_286.app[0].localPort 1100
param **.sink_286.app[0].replyDelay 0s
param **.sink_287.numApps 1
param **.sink_287.app[0].typename "\"TcpGenericServerApp\""
param **.sink_287.app[0].localAddress "\"\""
param **.sink_287.app[0].localPort 1100
param **.sink_287.app[0].replyDelay 0s
param **.sink_288.numApps 1
param **.sink_288.app[0].typename "\"TcpGenericServerApp\""
param **.sink_288.app[0].localAddress "\"\""
param **.sink_288.app[0].localPort 1100
param **.sink_288.app[0].replyDelay 0s
param **.sink_289.numApps 1
param **.sink_289.app[0].typename "\"TcpGenericServerApp\""
param **.sink_289.app[0].localAddress "\"\""
param **.sink_289.app[0].localPort 1100
param **.sink_289.app[0].replyDelay 0s
param **.sink_290.numApps 1
param **.sink_290.app[0].typename "\"TcpGenericServerApp\""
param **.sink_290.app[0].localAddress "\"\""
param **.sink_290.app[0].localPort 1100
param **.sink_290.app[0].replyDelay 0s
param **.sink_291.numApps 1
param **.sink_291.app[0].typename "\"TcpGenericServerApp\""
param **.sink_291.app[0].localAddress "\"\""
param **.sink_291.app[0].localPort 1100
param **.sink_291.app[0].replyDelay 0s
param **.sink_292.numApps 1
param **.sink_292.app[0].typename "\"TcpGenericServerApp\""
param **.sink_292.app[0].localAddress "\"\""
param **.sink_292.app[0].localPort 1100
param **.sink_292.app[0].replyDelay 0s
param **.sink_293.numApps 1
param **.sink_293.app[0].typename "\"TcpGenericServerApp\""
param **.sink_293.app[0].localAddress "\"\""
param **.sink_293.app[0].localPort 1100
param **.sink_293.app[0].replyDelay 0s
param **.sink_294.numApps 1
param **.sink_294.app[0].typename "\"TcpGenericServerApp\""
param **.sink_294.app[0].localAddress "\"\""
param **.sink_294.app[0].localPort 1100
param **.sink_294.app[0].replyDelay 0s
param **.sink_295.numApps 1
param **.sink_295.app[0].typename "\"TcpGenericServerApp\""
param **.sink_295.app[0].localAddress "\"\""
param **.sink_295.app[0].localPort 1100
param **.sink_295.app[0].replyDelay 0s
param **.sink_296.numApps 1
param **.sink_296.app[0].typename "\"TcpGenericServerApp\""
param **.sink_296.app[0].localAddress "\"\""
param **.sink_296.app[0].localPort 1100
param **.sink_296.app[0].replyDelay 0s
param **.sink_297.numApps 1
param **.sink_297.app[0].typename "\"TcpGenericServerApp\""
param **.sink_297.app[0].localAddress "\"\""
param **.sink_297.app[0].localPort 1100
param **.sink_297.app[0].replyDelay 0s
param **.sink_298.numApps 1
param **.sink_298.app[0].typename "\"TcpGenericServerApp\""
param **.sink_298.app[0].localAddress "\"\""
param **.sink_298.app[0].localPort 1100
param **.sink_298.app[0].replyDelay 0s
param **.sink_299.numApps 1
param **.sink_299.app[0].typename "\"TcpGenericServerApp\""
param **.sink_299.app[0].localAddress "\"\""
param **.sink_299.app[0].localPort 1100
param **.sink_299.app[0].replyDelay 0s
param **.sink_300.numApps 1
param **.sink_300.app[0].typename "\"TcpGenericServerApp\""
param **.sink_300.app[0].localAddress "\"\""
param **.sink_300.app[0].localPort 1100
param **.sink_300.app[0].replyDelay 0s
param **.sink_301.numApps 1
param **.sink_301.app[0].typename "\"TcpGenericServerApp\""
param **.sink_301.app[0].localAddress "\"\""
param **.sink_301.app[0].localPort 1100
param **.sink_301.app[0].replyDelay 0s
param **.sink_302.numApps 1
param **.sink_302.app[0].typename "\"TcpGenericServerApp\""
param **.sink_302.app[0].localAddress "\"\""
param **.sink_302.app[0].localPort 1100
param **.sink_302.app[0].replyDelay 0s
param **.sink_303.numApps 1
param **.sink_303.app[0].typename "\"TcpGenericServerApp\""
param **.sink_303.app[0].localAddress "\"\""
param **.sink_303.app[0].localPort 1100
param **.sink_303.app[0].replyDelay 0s
param **.sink_304.numApps 1
param **.sink_304.app[0].typename "\"TcpGenericServerApp\""
param **.sink_304.app[0].localAddress "\"\""
param **.sink_304.app[0].localPort 1100
param **.sink_304.app[0].replyDelay 0s
param **.sink_305.numApps 1
param **.sink_305.app[0].typename "\"TcpGenericServerApp\""
param **.sink_305.app[0].localAddress "\"\""
param **.sink_305.app[0].localPort 1100
param **.sink_305.app[0].replyDelay 0s
param **.sink_306.numApps 1
param **.sink_306.app[0].typename "\"TcpGenericServerApp\""
param **.sink_306.app[0].localAddress "\"\""
param **.sink_306.app[0].localPort 1100
param **.sink_306.app[0].replyDelay 0s
param **.sink_307.numApps 1
param **.sink_307.app[0].typename "\"TcpGenericServerApp\""
param **.sink_307.app[0].localAddress "\"\""
param **.sink_307.app[0].localPort 1100
param **.sink_307.app[0].replyDelay 0s
param **.sink_308.numApps 1
param **.sink_308.app[0].typename "\"TcpGenericServerApp\""
param **.sink_308.app[0].localAddress "\"\""
param **.sink_308.app[0].localPort 1100
param **.sink_308.app[0].replyDelay 0s
param **.sink_309.numApps 1
param **.sink_309.app[0].typename "\"TcpGenericServerApp\""
param **.sink_309.app[0].localAddress "\"\""
param **.sink_309.app[0].localPort 1100
param **.sink_309.app[0].replyDelay 0s
param **.sink_310.numApps 1
param **.sink_310.app[0].typename "\"TcpGenericServerApp\""
param **.sink_310.app[0].localAddress "\"\""
param **.sink_310.app[0].localPort 1100
param **.sink_310.app[0].replyDelay 0s
param **.sink_311.numApps 1
param **.sink_311.app[0].typename "\"TcpGenericServerApp\""
param **.sink_311.app[0].localAddress "\"\""
param **.sink_311.app[0].localPort 1100
param **.sink_311.app[0].replyDelay 0s
param **.sink_312.numApps 1
param **.sink_312.app[0].typename "\"TcpGenericServerApp\""
param **.sink_312.app[0].localAddress "\"\""
param **.sink_312.app[0].localPort 1100
param **.sink_312.app[0].replyDelay 0s
param **.sink_313.numApps 1
param **.sink_313.app[0].typename "\"TcpGenericServerApp\""
param **.sink_313.app[0].localAddress "\"\""
param **.sink_313.app[0].localPort 1100
param **.sink_313.app[0].replyDelay 0s
param **.sink_314.numApps 1
param **.sink_314.app[0].typename "\"TcpGenericServerApp\""
param **.sink_314.app[0].localAddress "\"\""
param **.sink_314.app[0].localPort 1100
param **.sink_314.app[0].replyDelay 0s
param **.sink_315.numApps 1
param **.sink_315.app[0].typename "\"TcpGenericServerApp\""
param **.sink_315.app[0].localAddress "\"\""
param **.sink_315.app[0].localPort 1100
param **.sink_315.app[0].replyDelay 0s
param **.sink_316.numApps 1
param **.sink_316.app[0].typename "\"TcpGenericServerApp\""
param **.sink_316.app[0].localAddress "\"\""
param **.sink_316.app[0].localPort 1100
param **.sink_316.app[0].replyDelay 0s
param **.sink_317.numApps 1
param **.sink_317.app[0].typename "\"TcpGenericServerApp\""
param **.sink_317.app[0].localAddress "\"\""
param **.sink_317.app[0].localPort 1100
param **.sink_317.app[0].replyDelay 0s
param **.sink_318.numApps 1
param **.sink_318.app[0].typename "\"TcpGenericServerApp\""
param **.sink_318.app[0].localAddress "\"\""
param **.sink_318.app[0].localPort 1100
param **.sink_318.app[0].replyDelay 0s
param **.sink_319.numApps 1
param **.sink_319.app[0].typename "\"TcpGenericServerApp\""
param **.sink_319.app[0].localAddress "\"\""
param **.sink_319.app[0].localPort 1100
param **.sink_319.app[0].replyDelay 0s
param **.sink_320.numApps 1
param **.sink_320.app[0].typename "\"TcpGenericServerApp\""
param **.sink_320.app[0].localAddress "\"\""
param **.sink_320.app[0].localPort 1100
param **.sink_320.app[0].replyDelay 0s
param **.sink_321.numApps 1
param **.sink_321.app[0].typename "\"TcpGenericServerApp\""
param **.sink_321.app[0].localAddress "\"\""
param **.sink_321.app[0].localPort 1100
param **.sink_321.app[0].replyDelay 0s
param **.sink_322.numApps 1
param **.sink_322.app[0].typename "\"TcpGenericServerApp\""
param **.sink_322.app[0].localAddress "\"\""
param **.sink_322.app[0].localPort 1100
param **.sink_322.app[0].replyDelay 0s
param **.sink_323.numApps 1
param **.sink_323.app[0].typename "\"TcpGenericServerApp\""
param **.sink_323.app[0].localAddress "\"\""
param **.sink_323.app[0].localPort 1100
param **.sink_323.app[0].replyDelay 0s
param **.sink_324.numApps 1
param **.sink_324.app[0].typename "\"TcpGenericServerApp\""
param **.sink_324.app[0].localAddress "\"\""
param **.sink_324.app[0].localPort 1100
param **.sink_324.app[0].replyDelay 0s
param **.sink_325.numApps 1
param **.sink_325.app[0].typename "\"TcpGenericServerApp\""
param **.sink_325.app[0].localAddress "\"\""
param **.sink_325.app[0].localPort 1100
param **.sink_325.app[0].replyDelay 0s
param **.sink_326.numApps 1
param **.sink_326.app[0].typename "\"TcpGenericServerApp\""
param **.sink_326.app[0].localAddress "\"\""
param **.sink_326.app[0].localPort 1100
param **.sink_326.app[0].replyDelay 0s
param **.sink_327.numApps 1
param **.sink_327.app[0].typename "\"TcpGenericServerApp\""
param **.sink_327.app[0].localAddress "\"\""
param **.sink_327.app[0].localPort 1100
param **.sink_327.app[0].replyDelay 0s
param **.sink_328.numApps 1
param **.sink_328.app[0].typename "\"TcpGenericServerApp\""
param **.sink_328.app[0].localAddress "\"\""
param **.sink_328.app[0].localPort 1100
param **.sink_328.app[0].replyDelay 0s
param **.sink_329.numApps 1
param **.sink_329.app[0].typename "\"TcpGenericServerApp\""
param **.sink_329.app[0].localAddress "\"\""
param **.sink_329.app[0].localPort 1100
param **.sink_329.app[0].replyDelay 0s
param **.sink_330.numApps 1
param **.sink_330.app[0].typename "\"TcpGenericServerApp\""
param **.sink_330.app[0].localAddress "\"\""
param **.sink_330.app[0].localPort 1100
param **.sink_330.app[0].replyDelay 0s
param **.sink_331.numApps 1
param **.sink_331.app[0].typename "\"TcpGenericServerApp\""
param **.sink_331.app[0].localAddress "\"\""
param **.sink_331.app[0].localPort 1100
param **.sink_331.app[0].replyDelay 0s
param **.sink_332.numApps 1
param **.sink_332.app[0].typename "\"TcpGenericServerApp\""
param **.sink_332.app[0].localAddress "\"\""
param **.sink_332.app[0].localPort 1100
param **.sink_332.app[0].replyDelay 0s
param **.sink_333.numApps 1
param **.sink_333.app[0].typename "\"TcpGenericServerApp\""
param **.sink_333.app[0].localAddress "\"\""
param **.sink_333.app[0].localPort 1100
param **.sink_333.app[0].replyDelay 0s
param **.sink_334.numApps 1
param **.sink_334.app[0].typename "\"TcpGenericServerApp\""
param **.sink_334.app[0].localAddress "\"\""
param **.sink_334.app[0].localPort 1100
param **.sink_334.app[0].replyDelay 0s
param **.sink_335.numApps 1
param **.sink_335.app[0].typename "\"TcpGenericServerApp\""
param **.sink_335.app[0].localAddress "\"\""
param **.sink_335.app[0].localPort 1100
param **.sink_335.app[0].replyDelay 0s
param **.sink_336.numApps 1
param **.sink_336.app[0].typename "\"TcpGenericServerApp\""
param **.sink_336.app[0].localAddress "\"\""
param **.sink_336.app[0].localPort 1100
param **.sink_336.app[0].replyDelay 0s
param **.sink_337.numApps 1
param **.sink_337.app[0].typename "\"TcpGenericServerApp\""
param **.sink_337.app[0].localAddress "\"\""
param **.sink_337.app[0].localPort 1100
param **.sink_337.app[0].replyDelay 0s
param **.sink_338.numApps 1
param **.sink_338.app[0].typename "\"TcpGenericServerApp\""
param **.sink_338.app[0].localAddress "\"\""
param **.sink_338.app[0].localPort 1100
param **.sink_338.app[0].replyDelay 0s
param **.sink_339.numApps 1
param **.sink_339.app[0].typename "\"TcpGenericServerApp\""
param **.sink_339.app[0].localAddress "\"\""
param **.sink_339.app[0].localPort 1100
param **.sink_339.app[0].replyDelay 0s
param **.sink_340.numApps 1
param **.sink_340.app[0].typename "\"TcpGenericServerApp\""
param **.sink_340.app[0].localAddress "\"\""
param **.sink_340.app[0].localPort 1100
param **.sink_340.app[0].replyDelay 0s
param **.sink_341.numApps 1
param **.sink_341.app[0].typename "\"TcpGenericServerApp\""
param **.sink_341.app[0].localAddress "\"\""
param **.sink_341.app[0].localPort 1100
param **.sink_341.app[0].replyDelay 0s
param **.sink_342.numApps 1
param **.sink_342.app[0].typename "\"TcpGenericServerApp\""
param **.sink_342.app[0].localAddress "\"\""
param **.sink_342.app[0].localPort 1100
param **.sink_342.app[0].replyDelay 0s
param **.sink_343.numApps 1
param **.sink_343.app[0].typename "\"TcpGenericServerApp\""
param **.sink_343.app[0].localAddress "\"\""
param **.sink_343.app[0].localPort 1100
param **.sink_343.app[0].replyDelay 0s
param **.sink_344.numApps 1
param **.sink_344.app[0].typename "\"TcpGenericServerApp\""
param **.sink_344.app[0].localAddress "\"\""
param **.sink_344.app[0].localPort 1100
param **.sink_344.app[0].replyDelay 0s
param **.sink_345.numApps 1
param **.sink_345.app[0].typename "\"TcpGenericServerApp\""
param **.sink_345.app[0].localAddress "\"\""
param **.sink_345.app[0].localPort 1100
param **.sink_345.app[0].replyDelay 0s
param **.sink_346.numApps 1
param **.sink_346.app[0].typename "\"TcpGenericServerApp\""
param **.sink_346.app[0].localAddress "\"\""
param **.sink_346.app[0].localPort 1100
param **.sink_346.app[0].replyDelay 0s
param **.sink_347.numApps 1
param **.sink_347.app[0].typename "\"TcpGenericServerApp\""
param **.sink_347.app[0].localAddress "\"\""
param **.sink_347.app[0].localPort 1100
param **.sink_347.app[0].replyDelay 0s
param **.sink_348.numApps 1
param **.sink_348.app[0].typename "\"TcpGenericServerApp\""
param **.sink_348.app[0].localAddress "\"\""
param **.sink_348.app[0].localPort 1100
param **.sink_348.app[0].replyDelay 0s
param **.sink_349.numApps 1
param **.sink_349.app[0].typename "\"TcpGenericServerApp\""
param **.sink_349.app[0].localAddress "\"\""
param **.sink_349.app[0].localPort 1100
param **.sink_349.app[0].replyDelay 0s
param **.sink_350.numApps 1
param **.sink_350.app[0].typename "\"TcpGenericServerApp\""
param **.sink_350.app[0].localAddress "\"\""
param **.sink_350.app[0].localPort 1100
param **.sink_350.app[0].replyDelay 0s
param **.sink_351.numApps 1
param **.sink_351.app[0].typename "\"TcpGenericServerApp\""
param **.sink_351.app[0].localAddress "\"\""
param **.sink_351.app[0].localPort 1100
param **.sink_351.app[0].replyDelay 0s
param **.sink_352.numApps 1
param **.sink_352.app[0].typename "\"TcpGenericServerApp\""
param **.sink_352.app[0].localAddress "\"\""
param **.sink_352.app[0].localPort 1100
param **.sink_352.app[0].replyDelay 0s
param **.sink_353.numApps 1
param **.sink_353.app[0].typename "\"TcpGenericServerApp\""
param **.sink_353.app[0].localAddress "\"\""
param **.sink_353.app[0].localPort 1100
param **.sink_353.app[0].replyDelay 0s
param **.sink_354.numApps 1
param **.sink_354.app[0].typename "\"TcpGenericServerApp\""
param **.sink_354.app[0].localAddress "\"\""
param **.sink_354.app[0].localPort 1100
param **.sink_354.app[0].replyDelay 0s
param **.sink_355.numApps 1
param **.sink_355.app[0].typename "\"TcpGenericServerApp\""
param **.sink_355.app[0].localAddress "\"\""
param **.sink_355.app[0].localPort 1100
param **.sink_355.app[0].replyDelay 0s
param **.sink_356.numApps 1
param **.sink_356.app[0].typename "\"TcpGenericServerApp\""
param **.sink_356.app[0].localAddress "\"\""
param **.sink_356.app[0].localPort 1100
param **.sink_356.app[0].replyDelay 0s
param **.sink_357.numApps 1
param **.sink_357.app[0].typename "\"TcpGenericServerApp\""
param **.sink_357.app[0].localAddress "\"\""
param **.sink_357.app[0].localPort 1100
param **.sink_357.app[0].replyDelay 0s
param **.sink_358.numApps 1
param **.sink_358.app[0].typename "\"TcpGenericServerApp\""
param **.sink_358.app[0].localAddress "\"\""
param **.sink_358.app[0].localPort 1100
param **.sink_358.app[0].replyDelay 0s
param **.sink_359.numApps 1
param **.sink_359.app[0].typename "\"TcpGenericServerApp\""
param **.sink_359.app[0].localAddress "\"\""
param **.sink_359.app[0].localPort 1100
param **.sink_359.app[0].replyDelay 0s
param **.sink_360.numApps 1
param **.sink_360.app[0].typename "\"TcpGenericServerApp\""
param **.sink_360.app[0].localAddress "\"\""
param **.sink_360.app[0].localPort 1100
param **.sink_360.app[0].replyDelay 0s
param **.sink_361.numApps 1
param **.sink_361.app[0].typename "\"TcpGenericServerApp\""
param **.sink_361.app[0].localAddress "\"\""
param **.sink_361.app[0].localPort 1100
param **.sink_361.app[0].replyDelay 0s
param **.sink_362.numApps 1
param **.sink_362.app[0].typename "\"TcpGenericServerApp\""
param **.sink_362.app[0].localAddress "\"\""
param **.sink_362.app[0].localPort 1100
param **.sink_362.app[0].replyDelay 0s
param **.sink_363.numApps 1
param **.sink_363.app[0].typename "\"TcpGenericServerApp\""
param **.sink_363.app[0].localAddress "\"\""
param **.sink_363.app[0].localPort 1100
param **.sink_363.app[0].replyDelay 0s
param **.sink_364.numApps 1
param **.sink_364.app[0].typename "\"TcpGenericServerApp\""
param **.sink_364.app[0].localAddress "\"\""
param **.sink_364.app[0].localPort 1100
param **.sink_364.app[0].replyDelay 0s
param **.sink_365.numApps 1
param **.sink_365.app[0].typename "\"TcpGenericServerApp\""
param **.sink_365.app[0].localAddress "\"\""
param **.sink_365.app[0].localPort 1100
param **.sink_365.app[0].replyDelay 0s
param **.sink_366.numApps 1
param **.sink_366.app[0].typename "\"TcpGenericServerApp\""
param **.sink_366.app[0].localAddress "\"\""
param **.sink_366.app[0].localPort 1100
param **.sink_366.app[0].replyDelay 0s
param **.sink_367.numApps 1
param **.sink_367.app[0].typename "\"TcpGenericServerApp\""
param **.sink_367.app[0].localAddress "\"\""
param **.sink_367.app[0].localPort 1100
param **.sink_367.app[0].replyDelay 0s
param **.source_000.numApps 1
param **.source_000.app[0].typename "\"TcpBasicClientApp\""
param **.source_000.app[0].localAddress "\"\""
param **.source_000.app[0].connectAddress "\"sink_000\""
param **.source_000.app[0].connectPort 1100
param **.source_000.app[0].startTime 0s
param **.source_000.app[0].idleInterval 1000s
param **.source_000.app[0].requestLength 1300B
param **.source_000.app[0].replyLength 20B
param **.source_000.app[0].thinkTime 0s
param **.source_000.app[0].numRequestsPerSession 4
param **.source_001.numApps 1
param **.source_001.app[0].typename "\"TcpBasicClientApp\""
param **.source_001.app[0].localAddress "\"\""
param **.source_001.app[0].connectAddress "\"sink_001\""
param **.source_001.app[0].connectPort 1100
param **.source_001.app[0].startTime 0s
param **.source_001.app[0].idleInterval 1000s
param **.source_001.app[0].requestLength 1300B
param **.source_001.app[0].replyLength 20B
param **.source_001.app[0].thinkTime 0s
param **.source_001.app[0].numRequestsPerSession 42
param **.source_002.numApps 1
param **.source_002.app[0].typename "\"TcpBasicClientApp\""
param **.source_002.app[0].localAddress "\"\""
param **.source_002.app[0].connectAddress "\"sink_002\""
param **.source_002.app[0].connectPort 1100
param **.source_002.app[0].startTime 0s
param **.source_002.app[0].idleInterval 1000s
param **.source_002.app[0].requestLength 1300B
[...]
bin	0.0016	3
bin	0.0017	1
bin	0.0018	1
bin	0.0019	2
bin	0.002	1
bin	0.0021	2
bin	0.0022	1
bin	0.0023	1
bin	0.0024	0
bin	0.0025	0
bin	0.0026	2
bin	0.0027	1
bin	0.0028	1
bin	0.0029	0
bin	0.003	1
bin	0.0031	1
bin	0.0032	0
bin	0.0033	1
bin	0.0034	0
bin	0.0035	1
bin	0.0036	1
bin	0.0037	0
bin	0.0038	0
bin	0.0039	0
bin	0.004	0
bin	0.0041	0
bin	0.0042	0
bin	0.0043	1
bin	0.0044	0
bin	0.0045	1
bin	0.0046	0
bin	0.0047	0
bin	0.0048	0
bin	0.0049	0
bin	0.005	1
bin	0.0051	1
bin	0.0052	0
bin	0.0053	0
bin	0.0054	0
bin	0.0055	0
bin	0.0056	0
bin	0.0057	0
bin	0.0058	0
bin	0.0059	0
bin	0.006	0
bin	0.0061	0
bin	0.0062	0
bin	0.0063	0
bin	0.0064	0
statistic Jellyfish__fvj_dc_big_traffic_seed6.source_361.app[0] endToEndDelay:weightedHistogram
field count 94
field mean 0.0012643723404255
field stddev 0.0011077753254608
field min 0.000548
field max 0.005151
field weights 15040
field weightedSum 19.01616
field sqrSumWeights 2406400
field weightedSqrSum 0.04230373936
attr interpolationmode none
attr source dataAge(packetReceived)
attr title "end-to-end delay, weightedHistogram"
attr unit s
bin	-inf	0
bin	0	0
bin	0.0001	0
bin	0.0002	0
bin	0.0003	0
bin	0.0004	0
bin	0.0005	8000
bin	0.0006	320
bin	0.0007	0
bin	0.0008	640
bin	0.0009	480
bin	0.001	160
bin	0.0011	0
bin	0.0012	160
bin	0.0013	480
bin	0.0014	480
bin	0.0015	320
bin	0.0016	480
bin	0.0017	160
bin	0.0018	160
bin	0.0019	320
bin	0.002	160
bin	0.0021	320
bin	0.0022	160
bin	0.0023	160
bin	0.0024	0
bin	0.0025	0
bin	0.0026	320
bin	0.0027	160
bin	0.0028	160
bin	0.0029	0
bin	0.003	160
bin	0.0031	160
bin	0.0032	0
bin	0.0033	160
bin	0.0034	0
bin	0.0035	160
bin	0.0036	160
bin	0.0037	0
bin	0.0038	0
bin	0.0039	0
bin	0.004	0
bin	0.0041	0
bin	0.0042	0
bin	0.0043	160
bin	0.0044	0
bin	0.0045	160
bin	0.0046	0
bin	0.0047	0
bin	0.0048	0
bin	0.0049	0
bin	0.005	160
bin	0.0051	160
bin	0.0052	0
bin	0.0053	0
bin	0.0054	0
bin	0.0055	0
bin	0.0056	0
bin	0.0057	0
bin	0.0058	0
bin	0.0059	0
bin	0.006	0
bin	0.0061	0
bin	0.0062	0
bin	0.0063	0
bin	0.0064	0
scalar Jellyfish__fvj_dc_big_traffic_seed6.source_361.app[0] numActiveSessions:max 1
attr interpolationmode sample-hold
attr source sum(connect)
attr title "number of active sessions, max"
scalar Jellyfish__fvj_dc_big_traffic_seed6.source_361.app[0] numActiveSessions:timeavg 0.001040883
attr interpolationmode sample-hold
attr source sum(connect)
attr title "number of active sessions, timeavg"
statistic Jellyfish__fvj_dc_big_traffic_seed6.source_362.app[0] endToEndDelay:histogram
field count 74
field mean 0.0015943648648649
field stddev 0.0012842176721388
field min 0.000548
field max 0.005729
field sum 0.117983
field sqrsum 0.000308500647
attr interpolationmode none
attr source dataAge(packetReceived)
attr title "end-to-end delay, histogram"
attr unit s
bin	-inf	0
bin	0	0
bin	0.0001	0
bin	0.0002	0
bin	0.0003	0
bin	0.0004	0
bin	0.0005	28
bin	0.0006	1
bin	0.0007	2
bin	0.0008	2
bin	0.0009	1
bin	0.001	0
bin	0.0011	1
bin	0.0012	1
bin	0.0013	0
bin	0.0014	3
bin	0.0015	3
bin	0.0016	8
bin	0.0017	2
bin	0.0018	4
bin	0.0019	1
bin	0.002	0
bin	0.0021	1
bin	0.0022	1
bin	0.0023	2
bin	0.0024	0
bin	0.0025	0
bin	0.0026	1
bin	0.0027	1
bin	0.0028	0
bin	0.0029	1
bin	0.003	1
bin	0.0031	1
bin	0.0032	1
bin	0.0033	0
bin	0.0034	0
bin	0.0035	0
bin	0.0036	0
bin	0.0037	0
bin	0.0038	0
bin	0.0039	0
bin	0.004	1
bin	0.0041	0
bin	0.0042	0
bin	0.0043	1
bin	0.0044	0
bin	0.0045	1
bin	0.0046	1
bin	0.0047	1
bin	0.0048	0
bin	0.0049	0
bin	0.005	0
bin	0.0051	0
bin	0.0052	1
bin	0.0053	0
bin	0.0054	0
bin	0.0055	0
bin	0.0056	0
bin	0.0057	1
bin	0.0058	0
bin	0.0059	0
bin	0.006	0
bin	0.0061	0
bin	0.0062	0
bin	0.0063	0
bin	0.0064	0
bin	0.0065	0
bin	0.0066	0
bin	0.0067	0
bin	0.0068	0
bin	0.0069	0
bin	0.007	0
bin	0.0071	0
statistic Jellyfish__fvj_dc_big_traffic_seed6.source_362.app[0] endToEndDelay:weightedHistogram
field count 74
field mean 0.0015943648648649
field stddev 0.0012842176721388
field min 0.000548
field max 0.005729
field weights 11840
field weightedSum 18.87728
field sqrSumWeights 1894400
field weightedSqrSum 0.04936010352
attr interpolationmode none
attr source dataAge(packetReceived)
attr title "end-to-end delay, weightedHistogram"
attr unit s
bin	-inf	0
bin	0	0
bin	0.0001	0
bin	0.0002	0
bin	0.0003	0
bin	0.0004	0
bin	0.0005	4480
bin	0.0006	160
bin	0.0007	320
bin	0.0008	320
bin	0.0009	160
bin	0.001	0
bin	0.0011	160
bin	0.0012	160
bin	0.0013	0
bin	0.0014	480
bin	0.0015	480
bin	0.0016	1280
bin	0.0017	320
bin	0.0018	640
bin	0.0019	160
bin	0.002	0
bin	0.0021	160
bin	0.0022	160
bin	0.0023	320
bin	0.0024	0
bin	0.0025	0
bin	0.0026	160
bin	0.0027	160
bin	0.0028	0
bin	0.0029	160
bin	0.003	160
bin	0.0031	160
bin	0.0032	160
bin	0.0033	0
bin	0.0034	0
bin	0.0035	0
bin	0.0036	0
bin	0.0037	0
bin	0.0038	0
bin	0.0039	0
bin	0.004	160
bin	0.0041	0
bin	0.0042	0
bin	0.0043	160
bin	0.0044	0
bin	0.0045	160
bin	0.0046	160
bin	0.0047	160
bin	0.0048	0
bin	0.0049	0
bin	0.005	0
bin	0.0051	0
bin	0.0052	160
bin	0.0053	0
bin	0.0054	0
bin	0.0055	0
bin	0.0056	0
bin	0.0057	160
bin	0.0058	0
bin	0.0059	0
bin	0.006	0
bin	0.0061	0
bin	0.0062	0
bin	0.0063	0
bin	0.0064	0
bin	0.0065	0
bin	0.0066	0
bin	0.0067	0
bin	0.0068	0
bin	0.0069	0
bin	0.007	0
bin	0.0071	0
scalar Jellyfish__fvj_dc_big_traffic_seed6.source_362.app[0] numActiveSessions:max 1
attr interpolationmode sample-hold
attr source sum(connect)
attr title "number of active sessions, max"
scalar Jellyfish__fvj_dc_big_traffic_seed6.source_362.app[0] numActiveSessions:timeavg 0.000516986
attr interpolationmode sample-hold
attr source sum(connect)
attr title "number of active sessions, timeavg"
statistic Jellyfish__fvj_dc_big_traffic_seed6.source_363.app[0] endToEndDelay:histogram
field count 33
field mean 0.0018548787878788
field stddev 0.0013326680418801
field min 0.000548
field max 0.004508
field sum 0.061211
field sqrsum 0.000170371117
attr interpolationmode none
attr source dataAge(packetReceived)
attr title "end-to-end delay, histogram"
attr unit s
bin	-inf	0
bin	0	0
bin	0.0001	0
bin	0.0002	0
bin	0.0003	0
bin	0.0004	0
bin	0.0005	10
bin	0.0006	0
bin	0.0007	2
bin	0.0008	1
bin	0.0009	0
bin	0.001	0
bin	0.0011	1
bin	0.0012	0
bin	0.0013	1
bin	0.0014	1
bin	0.0015	0
bin	0.0016	1
bin	0.0017	3
bin	0.0018	1
bin	0.0019	0
bin	0.002	1
bin	0.0021	0
bin	0.0022	0
bin	0.0023	0
bin	0.0024	1
bin	0.0025	0
bin	0.0026	0
bin	0.0027	0
bin	0.0028	1
bin	0.0029	1
bin	0.003	1
bin	0.0031	1
bin	0.0032	1
bin	0.0033	0
bin	0.0034	0
bin	0.0035	0
bin	0.0036	0
bin	0.0037	0
bin	0.0038	1
bin	0.0039	1
bin	0.004	0
bin	0.0041	0
bin	0.0042	1
bin	0.0043	0
bin	0.0044	1
bin	0.0045	1
bin	0.0046	0
bin	0.0047	0
bin	0.0048	0
bin	0.0049	0
bin	0.005	0
bin	0.0051	0
bin	0.0052	0
bin	0.0053	0
bin	0.0054	0
bin	0.0055	0
statistic Jellyfish__fvj_dc_big_traffic_seed6.source_363.app[0] endToEndDelay:weightedHistogram
field count 33
field mean 0.0018548787878788
field stddev 0.0013326680418801
field min 0.000548
field max 0.004508
field weights 5280
field weightedSum 9.79376
field sqrSumWeights 844800
field weightedSqrSum 0.02725937872
attr interpolationmode none
attr source dataAge(packetReceived)
attr title "end-to-end delay, weightedHistogram"
attr unit s
bin	-inf	0
bin	0	0
bin	0.0001	0
bin	0.0002	0
bin	0.0003	0
bin	0.0004	0
bin	0.0005	1600
bin	0.0006	0
bin	0.0007	320
bin	0.0008	160
bin	0.0009	0
bin	0.001	0
bin	0.0011	160
bin	0.0012	0
bin	0.0013	160
bin	0.0014	160
bin	0.0015	0
bin	0.0016	160
bin	0.0017	480
bin	0.0018	160
bin	0.0019	0
bin	0.002	160
bin	0.0021	0
bin	0.0022	0
bin	0.0023	0
bin	0.0024	160
bin	0.0025	0
bin	0.0026	0
bin	0.0027	0
bin	0.0028	160
bin	0.0029	160
bin	0.003	160
bin	0.0031	160
bin	0.0032	160
bin	0.0033	0
bin	0.0034	0
bin	0.0035	0
bin	0.0036	0
bin	0.0037	0
bin	0.0038	160
bin	0.0039	160
bin	0.004	0
bin	0.0041	0
bin	0.0042	160
bin	0.0043	0
bin	0.0044	160
bin	0.0045	160
bin	0.0046	0
bin	0.0047	0
bin	0.0048	0
bin	0.0049	0
bin	0.005	0
bin	0.0051	0
bin	0.0052	0
bin	0.0053	0
bin	0.0054	0
bin	0.0055	0
scalar Jellyfish__fvj_dc_big_traffic_seed6.source_363.app[0] numActiveSessions:max 1
attr interpolationmode sample-hold
attr source sum(connect)
attr title "number of active sessions, max"
scalar Jellyfish__fvj_dc_big_traffic_seed6.source_363.app[0] numActiveSessions:timeavg 0.000413916
attr interpolationmode sample-hold
attr source sum(connect)
attr title "number of active sessions, timeavg"
statistic Jellyfish__fvj_dc_big_traffic_seed6.source_364.app[0] endToEndDelay:histogram
field count 193
field mean 0.00084216580310881
field stddev 0.00074678497956205
field min 0.000548
field max 0.004416
field sum 0.162538
field sqrsum 0.000243960004
attr interpolationmode none
attr source dataAge(packetReceived)
attr title "end-to-end delay, histogram"
attr unit s
bin	-inf	0
bin	0	0
bin	0.0001	0
bin	0.0002	0
bin	0.0003	0
bin	0.0004	0
bin	0.0005	155
bin	0.0006	1
bin	0.0007	3
bin	0.0008	3
bin	0.0009	0
bin	0.001	1
bin	0.0011	2
bin	0.0012	0
bin	0.0013	0
bin	0.0014	1
bin	0.0015	1
bin	0.0016	4
bin	0.0017	3
bin	0.0018	0
bin	0.0019	3
bin	0.002	1
bin	0.0021	2
bin	0.0022	2
bin	0.0023	0
bin	0.0024	1
bin	0.0025	0
bin	0.0026	0
bin	0.0027	1
bin	0.0028	0
bin	0.0029	1
bin	0.003	2
bin	0.0031	1
bin	0.0032	0
bin	0.0033	0
bin	0.0034	0
bin	0.0035	2
bin	0.0036	0
bin	0.0037	0
bin	0.0038	0
bin	0.0039	1
bin	0.004	0
bin	0.0041	0
bin	0.0042	0
bin	0.0043	1
bin	0.0044	1
bin	0.0045	0
bin	0.0046	0
bin	0.0047	0
bin	0.0048	0
bin	0.0049	0
bin	0.005	0
bin	0.0051	0
bin	0.0052	0
bin	0.0053	0
bin	0.0054	0
statistic Jellyfish__fvj_dc_big_traffic_seed6.source_364.app[0] endToEndDelay:weightedHistogram
field count 193
field mean 0.0008421658031088
field stddev 0.00074678497956205
field min 0.000548
field max 0.004416
field weights 30880
field weightedSum 26.00608
field sqrSumWeights 4940800
field weightedSqrSum 0.03903360064
attr interpolationmode none
attr source dataAge(packetReceived)
attr title "end-to-end delay, weightedHistogram"
attr unit s
bin	-inf	0
bin	0	0
bin	0.0001	0
bin	0.0002	0
bin	0.0003	0
bin	0.0004	0
bin	0.0005	24800
bin	0.0006	160
bin	0.0007	480
bin	0.0008	480
bin	0.0009	0
bin	0.001	160
bin	0.0011	320
bin	0.0012	0
bin	0.0013	0
bin	0.0014	160
bin	0.0015	160
bin	0.0016	640
bin	0.0017	480
bin	0.0018	0
bin	0.0019	480
bin	0.002	160
bin	0.0021	320
bin	0.0022	320
bin	0.0023	0
bin	0.0024	160
bin	0.0025	0
bin	0.0026	0
bin	0.0027	160
bin	0.0028	0
bin	0.0029	160
bin	0.003	320
bin	0.0031	160
bin	0.0032	0
bin	0.0033	0
bin	0.0034	0
bin	0.0035	320
bin	0.0036	0
bin	0.0037	0
bin	0.0038	0
bin	0.0039	160
bin	0.004	0
bin	0.0041	0
bin	0.0042	0
bin	0.0043	160
bin	0.0044	160
bin	0.0045	0
bin	0.0046	0
bin	0.0047	0
bin	0.0048	0
bin	0.0049	0
bin	0.005	0
bin	0.0051	0
bin	0.0052	0
bin	0.0053	0
bin	0.0054	0
scalar Jellyfish__fvj_dc_big_traffic_seed6.source_364.app[0] numActiveSessions:max 1
attr interpolationmode sample-hold
attr source sum(connect)
attr title "number of active sessions, max"
scalar Jellyfish__fvj_dc_big_traffic_seed6.source_364.app[0] numActiveSessions:timeavg 0.002028256
attr interpolationmode sample-hold
attr source sum(connect)
attr title "number of active sessions, timeavg"
statistic Jellyfish__fvj_dc_big_traffic_seed6.source_365.app[0] endToEndDelay:histogram
field count 3
field mean 0.003901
field stddev 0.0014393345684725
field min 0.002763
field max 0.005519
field sum 0.011703
field sqrsum 4.9796771e-05
attr interpolationmode none
attr source dataAge(packetReceived)
attr title "end-to-end delay, histogram"
attr unit s
bin	-inf	0
bin	0.00205	0
bin	0.0021	0
bin	0.00215	0
bin	0.0022	0
bin	0.00225	0
bin	0.0023	0
bin	0.00235	0
bin	0.0024	0
bin	0.00245	0
bin	0.0025	0
bin	0.00255	0
bin	0.0026	0
bin	0.00265	0
bin	0.0027	0
bin	0.00275	1
bin	0.0028	0
bin	0.00285	0
bin	0.0029	0
bin	0.00295	0
bin	0.003	0
bin	0.00305	0
bin	0.0031	0
bin	0.00315	0
bin	0.0032	0
bin	0.00325	0
bin	0.0033	0
bin	0.00335	0
bin	0.0034	1
bin	0.00345	0
bin	0.0035	0
bin	0.00355	0
bin	0.0036	0
bin	0.00365	0
bin	0.0037	0
bin	0.00375	0
bin	0.0038	0
bin	0.00385	0
bin	0.0039	0
bin	0.00395	0
bin	0.004	0
bin	0.00405	0
bin	0.0041	0
bin	0.00415	0
bin	0.0042	0
bin	0.00425	0
bin	0.0043	0
bin	0.00435	0
bin	0.0044	0
bin	0.00445	0
bin	0.0045	0
bin	0.00455	0
bin	0.0046	0
bin	0.00465	0
bin	0.0047	0
bin	0.00475	0
bin	0.0048	0
bin	0.00485	0
bin	0.0049	0
bin	0.00495	0
bin	0.005	0
bin	0.00505	0
bin	0.0051	0
bin	0.00515	0
bin	0.0052	0
bin	0.00525	0
bin	0.0053	0
bin	0.00535	0
bin	0.0054	0
bin	0.00545	0
bin	0.0055	1
bin	0.00555	0
bin	0.0056	0
bin	0.00565	0
bin	0.0057	0
bin	0.00575	0
bin	0.0058	0
bin	0.00585	0
bin	0.0059	0
bin	0.00595	0
bin	0.006	0
bin	0.00605	0
bin	0.0061	0
bin	0.00615	0
bin	0.0062	0
bin	0.00625	0
statistic Jellyfish__fvj_dc_big_traffic_seed6.source_365.app[0] endToEndDelay:weightedHistogram
field count 3
field mean 0.003901
field stddev 0.0014393345684725
field min 0.002763
field max 0.005519
field weights 480
field weightedSum 1.87248
field sqrSumWeights 76800
field weightedSqrSum 0.00796748336
attr interpolationmode none
attr source dataAge(packetReceived)
attr title "end-to-end delay, weightedHistogram"
attr unit s
bin	-inf	0
bin	0.00205	0
bin	0.0021	0
bin	0.00215	0
bin	0.0022	0
bin	0.00225	0
bin	0.0023	0
bin	0.00235	0
bin	0.0024	0
bin	0.00245	0
bin	0.0025	0
bin	0.00255	0
bin	0.0026	0
bin	0.00265	0
bin	0.0027	0
bin	0.00275	160
bin	0.0028	0
bin	0.00285	0
bin	0.0029	0
bin	0.00295	0
bin	0.003	0
bin	0.00305	0
bin	0.0031	0
bin	0.00315	0
bin	0.0032	0
bin	0.00325	0
bin	0.0033	0
bin	0.00335	0
bin	0.0034	160
bin	0.00345	0
bin	0.0035	0
bin	0.00355	0
bin	0.0036	0
bin	0.00365	0
bin	0.0037	0
bin	0.00375	0
bin	0.0038	0
bin	0.00385	0
bin	0.0039	0
bin	0.00395	0
bin	0.004	0
bin	0.00405	0
bin	0.0041	0
bin	0.00415	0
bin	0.0042	0
bin	0.00425	0
bin	0.0043	0
bin	0.00435	0
bin	0.0044	0
bin	0.00445	0
bin	0.0045	0
bin	0.00455	0
bin	0.0046	0
bin	0.00465	0
bin	0.0047	0
bin	0.00475	0
bin	0.0048	0
bin	0.00485	0
bin	0.0049	0
bin	0.00495	0
bin	0.005	0
bin	0.00505	0
bin	0.0051	0
bin	0.00515	0
bin	0.0052	0
bin	0.00525	0
bin	0.0053	0
bin	0.00535	0
bin	0.0054	0
bin	0.00545	0
bin	0.0055	160
bin	0.00555	0
bin	0.0056	0
bin	0.00565	0
bin	0.0057	0
bin	0.00575	0
bin	0.0058	0
bin	0.00585	0
bin	0.0059	0
bin	0.00595	0
bin	0.006	0
bin	0.00605	0
bin	0.0061	0
bin	0.00615	0
bin	0.0062	0
bin	0.00625	0
scalar Jellyfish__fvj_dc_big_traffic_seed6.source_365.app[0] numActiveSessions:max 1
attr interpolationmode sample-hold
attr source sum(connect)
attr title "number of active sessions, max"
scalar Jellyfish__fvj_dc_big_traffic_seed6.source_365.app[0] numActiveSessions:timeavg 5.528e-05
attr interpolationmode sample-hold
attr source sum(connect)
attr title "number of active sessions, timeavg"
statistic Jellyfish__fvj_dc_big_traffic_seed6.source_366.app[0] endToEndDelay:histogram
field count 2
field mean 0.0031335
field stddev 0.002577404217425
field min 0.001311
field max 0.004956
field sum 0.006267
field sqrsum 2.6280657e-05
attr interpolationmode none
attr source dataAge(packetReceived)
attr title "end-to-end delay, histogram"
attr unit s
bin	-inf	0
bin	0.0003	0
bin	0.0004	0
bin	0.0005	0
bin	0.0006	0
bin	0.0007	0
bin	0.0008	0
bin	0.0009	0
bin	0.001	0
bin	0.0011	0
bin	0.0012	0
bin	0.0013	1
bin	0.0014	0
bin	0.0015	0
bin	0.0016	0
bin	0.0017	0
bin	0.0018	0
bin	0.0019	0
bin	0.002	0
bin	0.0021	0
bin	0.0022	0
bin	0.0023	0
bin	0.0024	0
bin	0.0025	0
bin	0.0026	0
bin	0.0027	0
bin	0.0028	0
bin	0.0029	0
bin	0.003	0
bin	0.0031	0
bin	0.0032	0
bin	0.0033	0
bin	0.0034	0
bin	0.0035	0
bin	0.0036	0
bin	0.0037	0
bin	0.0038	0
bin	0.0039	0
bin	0.004	0
bin	0.0041	0
bin	0.0042	0
bin	0.0043	0
bin	0.0044	0
bin	0.0045	0
bin	0.0046	0
bin	0.0047	0
bin	0.0048	0
bin	0.0049	1
bin	0.005	0
bin	0.0051	0
bin	0.0052	0
bin	0.0053	0
bin	0.0054	0
bin	0.0055	0
bin	0.0056	0
bin	0.0057	0
bin	0.0058	0
bin	0.0059	0
statistic Jellyfish__fvj_dc_big_traffic_seed6.source_366.app[0] endToEndDelay:weightedHistogram
field count 2
field mean 0.0031335
field stddev 0.002577404217425
field min 0.001311
field max 0.004956
field weights 320
field weightedSum 1.00272
field sqrSumWeights 51200
field weightedSqrSum 0.00420490512
attr interpolationmode none
attr source dataAge(packetReceived)
attr title "end-to-end delay, weightedHistogram"
attr unit s
bin	-inf	0
bin	0.0003	0
bin	0.0004	0
bin	0.0005	0
bin	0.0006	0
bin	0.0007	0
bin	0.0008	0
bin	0.0009	0
bin	0.001	0
bin	0.0011	0
bin	0.0012	0
bin	0.0013	160
bin	0.0014	0
bin	0.0015	0
bin	0.0016	0
bin	0.0017	0
bin	0.0018	0
bin	0.0019	0
bin	0.002	0
bin	0.0021	0
bin	0.0022	0
bin	0.0023	0
bin	0.0024	0
bin	0.0025	0
bin	0.0026	0
bin	0.0027	0
bin	0.0028	0
bin	0.0029	0
bin	0.003	0
bin	0.0031	0
bin	0.0032	0
bin	0.0033	0
bin	0.0034	0
bin	0.0035	0
bin	0.0036	0
bin	0.0037	0
bin	0.0038	0
bin	0.0039	0
bin	0.004	0
bin	0.0041	0
bin	0.0042	0
bin	0.0043	0
bin	0.0044	0
bin	0.0045	0
bin	0.0046	0
bin	0.0047	0
bin	0.0048	0
bin	0.0049	160
bin	0.005	0
bin	0.0051	0
bin	0.0052	0
bin	0.0053	0
bin	0.0054	0
bin	0.0055	0
bin	0.0056	0
bin	0.0057	0
bin	0.0058	0
bin	0.0059	0
scalar Jellyfish__fvj_dc_big_traffic_seed6.source_366.app[0] numActiveSessions:max 1
attr interpolationmode sample-hold
attr source sum(connect)
attr title "number of active sessions, max"
scalar Jellyfish__fvj_dc_big_traffic_seed6.source_366.app[0] numActiveSessions:timeavg 3.9759e-05
attr interpolationmode sample-hold
attr source sum(connect)
attr title "number of active sessions, timeavg"
statistic Jellyfish__fvj_dc_big_traffic_seed6.source_367.app[0] endToEndDelay:histogram
field count 374
field mean 0.0008661550802139
field stddev 0.00071065023090447
field min 0.000548
field max 0.004919
field sum 0.323942
field sqrsum 0.000468957868
attr interpolationmode none
attr source dataAge(packetReceived)
attr title "end-to-end delay, histogram"
attr unit s
bin	-inf	0
bin	0	0
bin	0.0001	0
bin	0.0002	0
bin	0.0003	0
bin	0.0004	0
bin	0.0005	273
bin	0.0006	4
bin	0.0007	6
bin	0.0008	2
bin	0.0009	4
bin	0.001	9
bin	0.0011	12
bin	0.0012	3
bin	0.0013	9
bin	0.0014	3
bin	0.0015	6
bin	0.0016	7
bin	0.0017	4
bin	0.0018	4
bin	0.0019	3
bin	0.002	2
bin	0.0021	2
bin	0.0022	1
bin	0.0023	2
bin	0.0024	0
bin	0.0025	0
bin	0.0026	2
bin	0.0027	1
bin	0.0028	0
bin	0.0029	1
bin	0.003	0
bin	0.0031	2
bin	0.0032	5
bin	0.0033	0
bin	0.0034	2
bin	0.0035	2
bin	0.0036	0
bin	0.0037	0
bin	0.0038	0
bin	0.0039	0
bin	0.004	0
bin	0.0041	0
bin	0.0042	0
bin	0.0043	0
bin	0.0044	0
bin	0.0045	1
bin	0.0046	0
bin	0.0047	0
bin	0.0048	1
bin	0.0049	1
bin	0.005	0
bin	0.0051	0
bin	0.0052	0
bin	0.0053	0
bin	0.0054	0
bin	0.0055	0
bin	0.0056	0
bin	0.0057	0
bin	0.0058	0
bin	0.0059	0
bin	0.006	0
bin	0.0061	0
statistic Jellyfish__fvj_dc_big_traffic_seed6.source_367.app[0] endToEndDelay:weightedHistogram
field count 374
field mean 0.0008661550802139
field stddev 0.00071065023090449
field min 0.000548
field max 0.004919
field weights 59840
field weightedSum 51.83072
field sqrSumWeights 9574400
field weightedSqrSum 0.075033258880001
attr interpolationmode none
attr source dataAge(packetReceived)
attr title "end-to-end delay, weightedHistogram"
attr unit s
bin	-inf	0
bin	0	0
bin	0.0001	0
bin	0.0002	0
bin	0.0003	0
bin	0.0004	0
bin	0.0005	43680
bin	0.0006	640
bin	0.0007	960
bin	0.0008	320
bin	0.0009	640
bin	0.001	1440
bin	0.0011	1920
bin	0.0012	480
bin	0.0013	1440
bin	0.0014	480
bin	0.0015	960
bin	0.0016	1120
bin	0.0017	640
bin	0.0018	640
bin	0.0019	480
bin	0.002	320
bin	0.0021	320
bin	0.0022	160
bin	0.0023	320
bin	0.0024	0
bin	0.0025	0
bin	0.0026	320
bin	0.0027	160
bin	0.0028	0
bin	0.0029	160
bin	0.003	0
bin	0.0031	320
bin	0.0032	800
bin	0.0033	0
bin	0.0034	320
bin	0.0035	320
bin	0.0036	0
bin	0.0037	0
bin	0.0038	0
bin	0.0039	0
bin	0.004	0
bin	0.0041	0
bin	0.0042	0
bin	0.0043	0
bin	0.0044	0
bin	0.0045	160
bin	0.0046	0
bin	0.0047	0
bin	0.0048	160
bin	0.0049	160
bin	0.005	0
bin	0.0051	0
bin	0.0052	0
bin	0.0053	0
bin	0.0054	0
bin	0.0055	0
bin	0.0056	0
bin	0.0057	0
bin	0.0058	0
bin	0.0059	0
bin	0.006	0
bin	0.0061	0
scalar Jellyfish__fvj_dc_big_traffic_seed6.source_367.app[0] numActiveSessions:max 1
attr interpolationmode sample-hold
attr source sum(connect)
attr title "number of active sessions, max"
scalar Jellyfish__fvj_dc_big_traffic_seed6.source_367.app[0] numActiveSessions:timeavg 0.002069392
attr interpolationmode sample-hold
attr source sum(connect)
attr title "number of active sessions, timeavg"

