version 2
run General-0-20220427-19:55:34-21832
attr configname General
attr datetime 20220427-19:55:34
attr experiment General
attr inifile VL2_8_8_1_seed1_jitter.ini
attr iterationvars ""
attr iterationvarsf ""
attr measurement ""
attr network VL2_8_8_1_seed1_jitter
attr processid 21832
attr repetition 0
attr replication #0
attr resultdir results
attr runnumber 0
attr seedset 0
param **.ppp[*].ppp.queue.typename "\"DropTailQueue\""
param **.ppp[*].ppp.queue.packetCapacity 100
param *.configurator.config "xmldoc(\"VL2_8_8_1_seed1_jitter.xml\")"
param **.sink_000.numApps 1
param **.sink_000.app[0].typename "\"TcpGenericServerApp\""
param **.sink_000.app[0].localAddress "\"\""
param **.sink_000.app[0].localPort 1100
param **.sink_000.app[0].replyDelay 0s
param **.sink_001.numApps 1
param **.sink_001.app[0].typename "\"TcpGenericServerApp\""
param **.sink_001.app[0].localAddress "\"\""
param **.sink_001.app[0].localPort 1100
param **.sink_001.app[0].replyDelay 0s
param **.sink_002.numApps 1
param **.sink_002.app[0].typename "\"TcpGenericServerApp\""
param **.sink_002.app[0].localAddress "\"\""
param **.sink_002.app[0].localPort 1100
param **.sink_002.app[0].replyDelay 0s
param **.sink_003.numApps 1
param **.sink_003.app[0].typename "\"TcpGenericServerApp\""
param **.sink_003.app[0].localAddress "\"\""
param **.sink_003.app[0].localPort 1100
param **.sink_003.app[0].replyDelay 0s
param **.sink_004.numApps 1
param **.sink_004.app[0].typename "\"TcpGenericServerApp\""
param **.sink_004.app[0].localAddress "\"\""
param **.sink_004.app[0].localPort 1100
param **.sink_004.app[0].replyDelay 0s
param **.sink_005.numApps 1
param **.sink_005.app[0].typename "\"TcpGenericServerApp\""
param **.sink_005.app[0].localAddress "\"\""
param **.sink_005.app[0].localPort 1100
param **.sink_005.app[0].replyDelay 0s
param **.sink_006.numApps 1
param **.sink_006.app[0].typename "\"TcpGenericServerApp\""
param **.sink_006.app[0].localAddress "\"\""
param **.sink_006.app[0].localPort 1100
param **.sink_006.app[0].replyDelay 0s
param **.sink_007.numApps 1
param **.sink_007.app[0].typename "\"TcpGenericServerApp\""
param **.sink_007.app[0].localAddress "\"\""
param **.sink_007.app[0].localPort 1100
param **.sink_007.app[0].replyDelay 0s
param **.sink_008.numApps 1
param **.sink_008.app[0].typename "\"TcpGenericServerApp\""
param **.sink_008.app[0].localAddress "\"\""
param **.sink_008.app[0].localPort 1100
param **.sink_008.app[0].replyDelay 0s
param **.sink_009.numApps 1
param **.sink_009.app[0].typename "\"TcpGenericServerApp\""
param **.sink_009.app[0].localAddress "\"\""
param **.sink_009.app[0].localPort 1100
param **.sink_009.app[0].replyDelay 0s
param **.sink_010.numApps 1
param **.sink_010.app[0].typename "\"TcpGenericServerApp\""
param **.sink_010.app[0].localAddress "\"\""
param **.sink_010.app[0].localPort 1100
param **.sink_010.app[0].replyDelay 0s
param **.sink_011.numApps 1
param **.sink_011.app[0].typename "\"TcpGenericServerApp\""
param **.sink_011.app[0].localAddress "\"\""
param **.sink_011.app[0].localPort 1100
param **.sink_011.app[0].replyDelay 0s
param **.sink_012.numApps 1
param **.sink_012.app[0].typename "\"TcpGenericServerApp\""
param **.sink_012.app[0].localAddress "\"\""
param **.sink_012.app[0].localPort 1100
param **.sink_012.app[0].replyDelay 0s
param **.sink_013.numApps 1
param **.sink_013.app[0].typename "\"TcpGenericServerApp\""
param **.sink_013.app[0].localAddress "\"\""
param **.sink_013.app[0].localPort 1100
param **.sink_013.app[0].replyDelay 0s
param **.sink_014.numApps 1
param **.sink_014.app[0].typename "\"TcpGenericServerApp\""
param **.sink_014.app[0].localAddress "\"\""
param **.sink_014.app[0].localPort 1100
param **.sink_014.app[0].replyDelay 0s
param **.sink_015.numApps 1
param **.sink_015.app[0].typename "\"TcpGenericServerApp\""
param **.sink_015.app[0].localAddress "\"\""
param **.sink_015.app[0].localPort 1100
param **.sink_015.app[0].replyDelay 0s
param **.sink_016.numApps 1
param **.sink_016.app[0].typename "\"TcpGenericServerApp\""
param **.sink_016.app[0].localAddress "\"\""
param **.sink_016.app[0].localPort 1100
param **.sink_016.app[0].replyDelay 0s
param **.sink_017.numApps 1
param **.sink_017.app[0].typename "\"TcpGenericServerApp\""
param **.sink_017.app[0].localAddress "\"\""
param **.sink_017.app[0].localPort 1100
param **.sink_017.app[0].replyDelay 0s
param **.sink_018.numApps 1
param **.sink_018.app[0].typename "\"TcpGenericServerApp\""
param **.sink_018.app[0].localAddress "\"\""
param **.sink_018.app[0].localPort 1100
param **.sink_018.app[0].replyDelay 0s
param **.sink_019.numApps 1
param **.sink_019.app[0].typename "\"TcpGenericServerApp\""
param **.sink_019.app[0].localAddress "\"\""
param **.sink_019.app[0].localPort 1100
param **.sink_019.app[0].replyDelay 0s
param **.sink_020.numApps 1
param **.sink_020.app[0].typename "\"TcpGenericServerApp\""
param **.sink_020.app[0].localAddress "\"\""
param **.sink_020.app[0].localPort 1100
param **.sink_020.app[0].replyDelay 0s
param **.sink_021.numApps 1
param **.sink_021.app[0].typename "\"TcpGenericServerApp\""
param **.sink_021.app[0].localAddress "\"\""
param **.sink_021.app[0].localPort 1100
param **.sink_021.app[0].replyDelay 0s
param **.sink_022.numApps 1
param **.sink_022.app[0].typename "\"TcpGenericServerApp\""
param **.sink_022.app[0].localAddress "\"\""
param **.sink_022.app[0].localPort 1100
param **.sink_022.app[0].replyDelay 0s
param **.sink_023.numApps 1
param **.sink_023.app[0].typename "\"TcpGenericServerApp\""
param **.sink_023.app[0].localAddress "\"\""
param **.sink_023.app[0].localPort 1100
param **.sink_023.app[0].replyDelay 0s
param **.sink_024.numApps 1
param **.sink_024.app[0].typename "\"TcpGenericServerApp\""
param **.sink_024.app[0].localAddress "\"\""
param **.sink_024.app[0].localPort 1100
param **.sink_024.app[0].replyDelay 0s
param **.sink_025.numApps 1
param **.sink_025.app[0].typename "\"TcpGenericServerApp\""
param **.sink_025.app[0].localAddress "\"\""
param **.sink_025.app[0].localPort 1100
param **.sink_025.app[0].replyDelay 0s
param **.sink_026.numApps 1
param **.sink_026.app[0].typename "\"TcpGenericServerApp\""
param **.sink_026.app[0].localAddress "\"\""
param **.sink_026.app[0].localPort 1100
param **.sink_026.app[0].replyDelay 0s
param **.sink_027.numApps 1
param **.sink_027.app[0].typename "\"TcpGenericServerApp\""
param **.sink_027.app[0].localAddress "\"\""
param **.sink_027.app[0].localPort 1100
param **.sink_027.app[0].replyDelay 0s
param **.sink_028.numApps 1
param **.sink_028.app[0].typename "\"TcpGenericServerApp\""
param **.sink_028.app[0].localAddress "\"\""
param **.sink_028.app[0].localPort 1100
param **.sink_028.app[0].replyDelay 0s
param **.sink_029.numApps 1
param **.sink_029.app[0].typename "\"TcpGenericServerApp\""
param **.sink_029.app[0].localAddress "\"\""
param **.sink_029.app[0].localPort 1100
param **.sink_029.app[0].replyDelay 0s
param **.sink_030.numApps 1
param **.sink_030.app[0].typename "\"TcpGenericServerApp\""
param **.sink_030.app[0].localAddress "\"\""
param **.sink_030.app[0].localPort 1100
param **.sink_030.app[0].replyDelay 0s
param **.sink_031.numApps 1
param **.sink_031.app[0].typename "\"TcpGenericServerApp\""
param **.sink_031.app[0].localAddress "\"\""
param **.sink_031.app[0].localPort 1100
param **.sink_031.app[0].replyDelay 0s
param **.sink_032.numApps 1
param **.sink_032.app[0].typename "\"TcpGenericServerApp\""
param **.sink_032.app[0].localAddress "\"\""
param **.sink_032.app[0].localPort 1100
param **.sink_032.app[0].replyDelay 0s
param **.sink_033.numApps 1
param **.sink_033.app[0].typename "\"TcpGenericServerApp\""
param **.sink_033.app[0].localAddress "\"\""
param **.sink_033.app[0].localPort 1100
param **.sink_033.app[0].replyDelay 0s
param **.sink_034.numApps 1
param **.sink_034.app[0].typename "\"TcpGenericServerApp\""
param **.sink_034.app[0].localAddress "\"\""
param **.sink_034.app[0].localPort 1100
param **.sink_034.app[0].replyDelay 0s
param **.sink_035.numApps 1
param **.sink_035.app[0].typename "\"TcpGenericServerApp\""
param **.sink_035.app[0].localAddress "\"\""
param **.sink_035.app[0].localPort 1100
param **.sink_035.app[0].replyDelay 0s
param **.sink_036.numApps 1
param **.sink_036.app[0].typename "\"TcpGenericServerApp\""
param **.sink_036.app[0].localAddress "\"\""
param **.sink_036.app[0].localPort 1100
param **.sink_036.app[0].replyDelay 0s
param **.sink_037.numApps 1
param **.sink_037.app[0].typename "\"TcpGenericServerApp\""
param **.sink_037.app[0].localAddress "\"\""
param **.sink_037.app[0].localPort 1100
param **.sink_037.app[0].replyDelay 0s
param **.sink_038.numApps 1
param **.sink_038.app[0].typename "\"TcpGenericServerApp\""
param **.sink_038.app[0].localAddress "\"\""
param **.sink_038.app[0].localPort 1100
param **.sink_038.app[0].replyDelay 0s
param **.sink_039.numApps 1
param **.sink_039.app[0].typename "\"TcpGenericServerApp\""
param **.sink_039.app[0].localAddress "\"\""
param **.sink_039.app[0].localPort 1100
param **.sink_039.app[0].replyDelay 0s
param **.sink_040.numApps 1
param **.sink_040.app[0].typename "\"TcpGenericServerApp\""
param **.sink_040.app[0].localAddress "\"\""
param **.sink_040.app[0].localPort 1100
param **.sink_040.app[0].replyDelay 0s
param **.sink_041.numApps 1
param **.sink_041.app[0].typename "\"TcpGenericServerApp\""
param **.sink_041.app[0].localAddress "\"\""
param **.sink_041.app[0].localPort 1100
param **.sink_041.app[0].replyDelay 0s
param **.sink_042.numApps 1
param **.sink_042.app[0].typename "\"TcpGenericServerApp\""
param **.sink_042.app[0].localAddress "\"\""
param **.sink_042.app[0].localPort 1100
param **.sink_042.app[0].replyDelay 0s
param **.sink_043.numApps 1
param **.sink_043.app[0].typename "\"TcpGenericServerApp\""
param **.sink_043.app[0].localAddress "\"\""
param **.sink_043.app[0].localPort 1100
param **.sink_043.app[0].replyDelay 0s
param **.sink_044.numApps 1
param **.sink_044.app[0].typename "\"TcpGenericServerApp\""
param **.sink_044.app[0].localAddress "\"\""
param **.sink_044.app[0].localPort 1100
param **.sink_044.app[0].replyDelay 0s
param **.sink_045.numApps 1
param **.sink_045.app[0].typename "\"TcpGenericServerApp\""
param **.sink_045.app[0].localAddress "\"\""
param **.sink_045.app[0].localPort 1100
param **.sink_045.app[0].replyDelay 0s
param **.sink_046.numApps 1
param **.sink_046.app[0].typename "\"TcpGenericServerApp\""
param **.sink_046.app[0].localAddress "\"\""
param **.sink_046.app[0].localPort 1100
param **.sink_046.app[0].replyDelay 0s
param **.sink_047.numApps 1
param **.sink_047.app[0].typename "\"TcpGenericServerApp\""
param **.sink_047.app[0].localAddress "\"\""
param **.sink_047.app[0].localPort 1100
param **.sink_047.app[0].replyDelay 0s
param **.sink_048.numApps 1
param **.sink_048.app[0].typename "\"TcpGenericServerApp\""
param **.sink_048.app[0].localAddress "\"\""
param **.sink_048.app[0].localPort 1100
param **.sink_048.app[0].replyDelay 0s
param **.sink_049.numApps 1
param **.sink_049.app[0].typename "\"TcpGenericServerApp\""
param **.sink_049.app[0].localAddress "\"\""
param **.sink_049.app[0].localPort 1100
param **.sink_049.app[0].replyDelay 0s
param **.sink_050.numApps 1
param **.sink_050.app[0].typename "\"TcpGenericServerApp\""
param **.sink_050.app[0].localAddress "\"\""
param **.sink_050.app[0].localPort 1100
param **.sink_050.app[0].replyDelay 0s
param **.sink_051.numApps 1
param **.sink_051.app[0].typename "\"TcpGenericServerApp\""
param **.sink_051.app[0].localAddress "\"\""
param **.sink_051.app[0].localPort 1100
param **.sink_051.app[0].replyDelay 0s
param **.sink_052.numApps 1
param **.sink_052.app[0].typename "\"TcpGenericServerApp\""
param **.sink_052.app[0].localAddress "\"\""
param **.sink_052.app[0].localPort 1100
param **.sink_052.app[0].replyDelay 0s
param **.sink_053.numApps 1
param **.sink_053.app[0].typename "\"TcpGenericServerApp\""
param **.sink_053.app[0].localAddress "\"\""
param **.sink_053.app[0].localPort 1100
param **.sink_053.app[0].replyDelay 0s
param **.sink_054.numApps 1
param **.sink_054.app[0].typename "\"TcpGenericServerApp\""
param **.sink_054.app[0].localAddress "\"\""
param **.sink_054.app[0].localPort 1100
param **.sink_054.app[0].replyDelay 0s
param **.sink_055.numApps 1
param **.sink_055.app[0].typename "\"TcpGenericServerApp\""
param **.sink_055.app[0].localAddress "\"\""
param **.sink_055.app[0].localPort 1100
param **.sink_055.app[0].replyDelay 0s
param **.sink_056.numApps 1
param **.sink_056.app[0].typename "\"TcpGenericServerApp\""
param **.sink_056.app[0].localAddress "\"\""
param **.sink_056.app[0].localPort 1100
param **.sink_056.app[0].replyDelay 0s
param **.sink_057.numApps 1
param **.sink_057.app[0].typename "\"TcpGenericServerApp\""
param **.sink_057.app[0].localAddress "\"\""
param **.sink_057.app[0].localPort 1100
param **.sink_057.app[0].replyDelay 0s
param **.sink_058.numApps 1
param **.sink_058.app[0].typename "\"TcpGenericServerApp\""
param **.sink_058.app[0].localAddress "\"\""
param **.sink_058.app[0].localPort 1100
param **.sink_058.app[0].replyDelay 0s
param **.sink_059.numApps 1
param **.sink_059.app[0].typename "\"TcpGenericServerApp\""
param **.sink_059.app[0].localAddress "\"\""
param **.sink_059.app[0].localPort 1100
param **.sink_059.app[0].replyDelay 0s
param **.sink_060.numApps 1
param **.sink_060.app[0].typename "\"TcpGenericServerApp\""
param **.sink_060.app[0].localAddress "\"\""
param **.sink_060.app[0].localPort 1100
param **.sink_060.app[0].replyDelay 0s
param **.sink_061.numApps 1
param **.sink_061.app[0].typename "\"TcpGenericServerApp\""
param **.sink_061.app[0].localAddress "\"\""
param **.sink_061.app[0].localPort 1100
param **.sink_061.app[0].replyDelay 0s
param **.sink_062.numApps 1
param **.sink_062.app[0].typename "\"TcpGenericServerApp\""
param **.sink_062.app[0].localAddress "\"\""
param **.sink_062.app[0].localPort 1100
param **.sink_062.app[0].replyDelay 0s
param **.sink_063.numApps 1
param **.sink_063.app[0].typename "\"TcpGenericServerApp\""
param **.sink_063.app[0].localAddress "\"\""
param **.sink_063.app[0].localPort 1100
param **.sink_063.app[0].replyDelay 0s
param **.sink_064.numApps 1
param **.sink_064.app[0].typename "\"TcpGenericServerApp\""
param **.sink_064.app[0].localAddress "\"\""
param **.sink_064.app[0].localPort 1100
param **.sink_064.app[0].replyDelay 0s
param **.sink_065.numApps 1
param **.sink_065.app[0].typename "\"TcpGenericServerApp\""
param **.sink_065.app[0].localAddress "\"\""
param **.sink_065.app[0].localPort 1100
param **.sink_065.app[0].replyDelay 0s
param **.sink_066.numApps 1
param **.sink_066.app[0].typename "\"TcpGenericServerApp\""
param **.sink_066.app[0].localAddress "\"\""
param **.sink_066.app[0].localPort 1100
param **.sink_066.app[0].replyDelay 0s
param **.sink_067.numApps 1
param **.sink_067.app[0].typename "\"TcpGenericServerApp\""
param **.sink_067.app[0].localAddress "\"\""
param **.sink_067.app[0].localPort 1100
param **.sink_067.app[0].replyDelay 0s
param **.sink_068.numApps 1
param **.sink_068.app[0].typename "\"TcpGenericServerApp\""
param **.sink_068.app[0].localAddress "\"\""
param **.sink_068.app[0].localPort 1100
param **.sink_068.app[0].replyDelay 0s
param **.sink_069.numApps 1
param **.sink_069.app[0].typename "\"TcpGenericServerApp\""
param **.sink_069.app[0].localAddress "\"\""
param **.sink_069.app[0].localPort 1100
param **.sink_069.app[0].replyDelay 0s
param **.sink_070.numApps 1
param **.sink_070.app[0].typename "\"TcpGenericServerApp\""
param **.sink_070.app[0].localAddress "\"\""
param **.sink_070.app[0].localPort 1100
param **.sink_070.app[0].replyDelay 0s
param **.sink_071.numApps 1
param **.sink_071.app[0].typename "\"TcpGenericServerApp\""
param **.sink_071.app[0].localAddress "\"\""
param **.sink_071.app[0].localPort 1100
param **.sink_071.app[0].replyDelay 0s
param **.sink_072.numApps 1
param **.sink_072.app[0].typename "\"TcpGenericServerApp\""
param **.sink_072.app[0].localAddress "\"\""
param **.sink_072.app[0].localPort 1100
param **.sink_072.app[0].replyDelay 0s
param **.sink_073.numApps 1
param **.sink_073.app[0].typename "\"TcpGenericServerApp\""
param **.sink_073.app[0].localAddress "\"\""
param **.sink_073.app[0].localPort 1100
param **.sink_073.app[0].replyDelay 0s
param **.sink_074.numApps 1
param **.sink_074.app[0].typename "\"TcpGenericServerApp\""
param **.sink_074.app[0].localAddress "\"\""
param **.sink_074.app[0].localPort 1100
param **.sink_074.app[0].replyDelay 0s
param **.sink_075.numApps 1
param **.sink_075.app[0].typename "\"TcpGenericServerApp\""
param **.sink_075.app[0].localAddress "\"\""
param **.sink_075.app[0].localPort 1100
param **.sink_075.app[0].replyDelay 0s
param **.sink_076.numApps 1
param **.sink_076.app[0].typename "\"TcpGenericServerApp\""
param **.sink_076.app[0].localAddress "\"\""
param **.sink_076.app[0].localPort 1100
param **.sink_076.app[0].replyDelay 0s
param **.sink_077.numApps 1
param **.sink_077.app[0].typename "\"TcpGenericServerApp\""
param **.sink_077.app[0].localAddress "\"\""
param **.sink_077.app[0].localPort 1100
param **.sink_077.app[0].replyDelay 0s
param **.sink_078.numApps 1
param **.sink_078.app[0].typename "\"TcpGenericServerApp\""
param **.sink_078.app[0].localAddress "\"\""
param **.sink_078.app[0].localPort 1100
param **.sink_078.app[0].replyDelay 0s
param **.sink_079.numApps 1
param **.sink_079.app[0].typename "\"TcpGenericServerApp\""
param **.sink_079.app[0].localAddress "\"\""
param **.sink_079.app[0].localPort 1100
param **.sink_079.app[0].replyDelay 0s
param **.source_000.numApps 1
param **.source_000.app[0].typename "\"TcpBasicClientApp\""
param **.source_000.app[0].localAddress "\"\""
param **.source_000.app[0].connectAddress "\"sink_000\""
param **.source_000.app[0].connectPort 1100
param **.source_000.app[0].startTime 0s
param **.source_000.app[0].idleInterval 1000s
param **.source_000.app[0].requestLength 1300B
param **.source_000.app[0].replyLength 20B
param **.source_000.app[0].thinkTime 0s
param **.source_000.app[0].numRequestsPerSession 77
param **.source_001.numApps 1
param **.source_001.app[0].typename "\"TcpBasicClientApp\""
param **.source_001.app[0].localAddress "\"\""
param **.source_001.app[0].connectAddress "\"sink_001\""
param **.source_001.app[0].connectPort 1100
param **.source_001.app[0].startTime 0s
param **.source_001.app[0].idleInterval 1000s
param **.source_001.app[0].requestLength 1300B
param **.source_001.app[0].replyLength 20B
param **.source_001.app[0].thinkTime 0s
param **.source_001.app[0].numRequestsPerSession 77
param **.source_002.numApps 1
param **.source_002.app[0].typename "\"TcpBasicClientApp\""
param **.source_002.app[0].localAddress "\"\""
param **.source_002.app[0].connectAddress "\"sink_002\""
param **.source_002.app[0].connectPort 1100
param **.source_002.app[0].startTime 0s
param **.source_002.app[0].idleInterval 1000s
param **.source_002.app[0].requestLength 1300B
param **.source_002.app[0].replyLength 20B
param **.source_002.app[0].thinkTime 0s
param **.source_002.app[0].numRequestsPerSession 77
param **.source_003.numApps 1
param **.source_003.app[0].typename "\"TcpBasicClientApp\""
param **.source_003.app[0].localAddress "\"\""
param **.source_003.app[0].connectAddress "\"sink_003\""
param **.source_003.app[0].connectPort 1100
param **.source_003.app[0].startTime 0s
param **.source_003.app[0].idleInterval 1000s
param **.source_003.app[0].requestLength 1300B
param **.source_003.app[0].replyLength 20B
param **.source_003.app[0].thinkTime 0s
param **.source_003.app[0].numRequestsPerSession 77
param **.source_004.numApps 1
param **.source_004.app[0].typename "\"TcpBasicClientApp\""
param **.source_004.app[0].localAddress "\"\""
param **.source_004.app[0].connectAddress "\"sink_004\""
param **.source_004.app[0].connectPort 1100
param **.source_004.app[0].startTime 0s
param **.source_004.app[0].idleInterval 1000s
param **.source_004.app[0].requestLength 1300B
param **.source_004.app[0].replyLength 20B
param **.source_004.app[0].thinkTime 0s
param **.source_004.app[0].numRequestsPerSession 77
param **.source_005.numApps 1
param **.source_005.app[0].typename "\"TcpBasicClientApp\""
param **.source_005.app[0].localAddress "\"\""
param **.source_005.app[0].connectAddress "\"sink_005\""
param **.source_005.app[0].connectPort 1100
param **.source_005.app[0].startTime 0s
param **.source_005.app[0].idleInterval 1000s
param **.source_005.app[0].requestLength 1300B
param **.source_005.app[0].replyLength 20B
param **.source_005.app[0].thinkTime 0s
param **.source_005.app[0].numRequestsPerSession 77
param **.source_006.numApps 1
param **.source_006.app[0].typename "\"TcpBasicClientApp\""
param **.source_006.app[0].localAddress "\"\""
param **.source_006.app[0].connectAddress "\"sink_006\""
param **.source_006.app[0].connectPort 1100
param **.source_006.app[0].startTime 0s
param **.source_006.app[0].idleInterval 1000s
param **.source_006.app[0].requestLength 1300B
param **.source_006.app[0].replyLength 20B
param **.source_006.app[0].thinkTime 0s
param **.source_006.app[0].numRequestsPerSession 77
param **.source_007.numApps 1
param **.source_007.app[0].typename "\"TcpBasicClientApp\""
param **.source_007.app[0].localAddress "\"\""
param **.source_007.app[0].connectAddress "\"sink_007\""
param **.source_007.app[0].connectPort 1100
param **.source_007.app[0].startTime 0s
param **.source_007.app[0].idleInterval 1000s
param **.source_007.app[0].requestLength 1300B
param **.source_007.app[0].replyLength 20B
param **.source_007.app[0].thinkTime 0s
param **.source_007.app[0].numRequestsPerSession 77
param **.source_008.numApps 1
param **.source_008.app[0].typename "\"TcpBasicClientApp\""
param **.source_008.app[0].localAddress "\"\""
param **.source_008.app[0].connectAddress "\"sink_008\""
param **.source_008.app[0].connectPort 1100
param **.source_008.app[0].startTime 0s
param **.source_008.app[0].idleInterval 1000s
param **.source_008.app[0].requestLength 1300B
param **.source_008.app[0].replyLength 20B
param **.source_008.app[0].thinkTime 0s
param **.source_008.app[0].numRequestsPerSession 77
param **.source_009.numApps 1
param **.source_009.app[0].typename "\"TcpBasicClientApp\""
param **.source_009.app[0].localAddress "\"\""
param **.source_009.app[0].connectAddress "\"sink_009\""
param **.source_009.app[0].connectPort 1100
param **.source_009.app[0].startTime 0s
param **.source_009.app[0].idleInterval 1000s
param **.source_009.app[0].requestLength 1300B
param **.source_009.app[0].replyLength 20B
param **.source_009.app[0].thinkTime 0s
param **.source_009.app[0].numRequestsPerSession 77
param **.source_010.numApps 1
param **.source_010.app[0].typename "\"TcpBasicClientApp\""
param **.source_010.app[0].localAddress "\"\""
param **.source_010.app[0].connectAddress "\"sink_010\""
param **.source_010.app[0].connectPort 1100
param **.source_010.app[0].startTime 0s
param **.source_010.app[0].idleInterval 1000s
param **.source_010.app[0].requestLength 1300B
param **.source_010.app[0].replyLength 20B
param **.source_010.app[0].thinkTime 0s
param **.source_010.app[0].numRequestsPerSession 77
param **.source_011.numApps 1
param **.source_011.app[0].typename "\"TcpBasicClientApp\""
param **.source_011.app[0].localAddress "\"\""
param **.source_011.app[0].connectAddress "\"sink_011\""
param **.source_011.app[0].connectPort 1100
param **.source_011.app[0].startTime 0s
param **.source_011.app[0].idleInterval 1000s
param **.source_011.app[0].requestLength 1300B
param **.source_011.app[0].replyLength 20B
param **.source_011.app[0].thinkTime 0s
param **.source_011.app[0].numRequestsPerSession 77
param **.source_012.numApps 1
param **.source_012.app[0].typename "\"TcpBasicClientApp\""
param **.source_012.app[0].localAddress "\"\""
param **.source_012.app[0].connectAddress "\"sink_012\""
param **.source_012.app[0].connectPort 1100
param **.source_012.app[0].startTime 0s
param **.source_012.app[0].idleInterval 1000s
param **.source_012.app[0].requestLength 1300B
param **.source_012.app[0].replyLength 20B
param **.source_012.app[0].thinkTime 0s
param **.source_012.app[0].numRequestsPerSession 77
param **.source_013.numApps 1
param **.source_013.app[0].typename "\"TcpBasicClientApp\""
param **.source_013.app[0].localAddress "\"\""
param **.source_013.app[0].connectAddress "\"sink_013\""
param **.source_013.app[0].connectPort 1100
param **.source_013.app[0].startTime 0s
param **.source_013.app[0].idleInterval 1000s
param **.source_013.app[0].requestLength 1300B
param **.source_013.app[0].replyLength 20B
param **.source_013.app[0].thinkTime 0s
param **.source_013.app[0].numRequestsPerSession 77
param **.source_014.numApps 1
param **.source_014.app[0].typename "\"TcpBasicClientApp\""
param **.source_014.app[0].localAddress "\"\""
param **.source_014.app[0].connectAddress "\"sink_014\""
param **.source_014.app[0].connectPort 1100
param **.source_014.app[0].startTime 0s
param **.source_014.app[0].idleInterval 1000s
param **.source_014.app[0].requestLength 1300B
param **.source_014.app[0].replyLength 20B
param **.source_014.app[0].thinkTime 0s
param **.source_014.app[0].numRequestsPerSession 77
param **.source_015.numApps 1
param **.source_015.app[0].typename "\"TcpBasicClientApp\""
param **.source_015.app[0].localAddress "\"\""
param **.source_015.app[0].connectAddress "\"sink_015\""
param **.source_015.app[0].connectPort 1100
param **.source_015.app[0].startTime 0s
param **.source_015.app[0].idleInterval 1000s
param **.source_015.app[0].requestLength 1300B
param **.source_015.app[0].replyLength 20B
param **.source_015.app[0].thinkTime 0s
param **.source_015.app[0].numRequestsPerSession 77
param **.source_016.numApps 1
param **.source_016.app[0].typename "\"TcpBasicClientApp\""
param **.source_016.app[0].localAddress "\"\""
param **.source_016.app[0].connectAddress "\"sink_016\""
param **.source_016.app[0].connectPort 1100
param **.source_016.app[0].startTime 0s
param **.source_016.app[0].idleInterval 1000s
param **.source_016.app[0].requestLength 1300B
param **.source_016.app[0].replyLength 20B
param **.source_016.app[0].thinkTime 0s
param **.source_016.app[0].numRequestsPerSession 77
param **.source_017.numApps 1
param **.source_017.app[0].typename "\"TcpBasicClientApp\""
param **.source_017.app[0].localAddress "\"\""
param **.source_017.app[0].connectAddress "\"sink_017\""
param **.source_017.app[0].connectPort 1100
param **.source_017.app[0].startTime 0s
param **.source_017.app[0].idleInterval 1000s
param **.source_017.app[0].requestLength 1300B
param **.source_017.app[0].replyLength 20B
param **.source_017.app[0].thinkTime 0s
param **.source_017.app[0].numRequestsPerSession 77
param **.source_018.numApps 1
param **.source_018.app[0].typename "\"TcpBasicClientApp\""
param **.source_018.app[0].localAddress "\"\""
param **.source_018.app[0].connectAddress "\"sink_018\""
param **.source_018.app[0].connectPort 1100
param **.source_018.app[0].startTime 0s
param **.source_018.app[0].idleInterval 1000s
param **.source_018.app[0].requestLength 1300B
param **.source_018.app[0].replyLength 20B
param **.source_018.app[0].thinkTime 0s
param **.source_018.app[0].numRequestsPerSession 77
param **.source_019.numApps 1
param **.source_019.app[0].typename "\"TcpBasicClientApp\""
param **.source_019.app[0].localAddress "\"\""
param **.source_019.app[0].connectAddress "\"sink_019\""
param **.source_019.app[0].connectPort 1100
param **.source_019.app[0].startTime 0s
param **.source_019.app[0].idleInterval 1000s
param **.source_019.app[0].requestLength 1300B
param **.source_019.app[0].replyLength 20B
param **.source_019.app[0].thinkTime 0s
param **.source_019.app[0].numRequestsPerSession 77
param **.source_020.numApps 1
param **.source_020.app[0].typename "\"TcpBasicClientApp\""
param **.source_020.app[0].localAddress "\"\""
param **.source_020.app[0].connectAddress "\"sink_020\""
param **.source_020.app[0].connectPort 1100
param **.source_020.app[0].startTime 0s
param **.source_020.app[0].idleInterval 1000s
param **.source_020.app[0].requestLength 1300B
param **.source_020.app[0].replyLength 20B
param **.source_020.app[0].thinkTime 0s
param **.source_020.app[0].numRequestsPerSession 77
param **.source_021.numApps 1
param **.source_021.app[0].typename "\"TcpBasicClientApp\""
param **.source_021.app[0].localAddress "\"\""
param **.source_021.app[0].connectAddress "\"sink_021\""
param **.source_021.app[0].connectPort 1100
param **.source_021.app[0].startTime 0s
param **.source_021.app[0].idleInterval 1000s
param **.source_021.app[0].requestLength 1300B
param **.source_021.app[0].replyLength 20B
param **.source_021.app[0].thinkTime 0s
param **.source_021.app[0].numRequestsPerSession 77
param **.source_022.numApps 1
param **.source_022.app[0].typename "\"TcpBasicClientApp\""
param **.source_022.app[0].localAddress "\"\""
param **.source_022.app[0].connectAddress "\"sink_022\""
param **.source_022.app[0].connectPort 1100
param **.source_022.app[0].startTime 0s
param **.source_022.app[0].idleInterval 1000s
param **.source_022.app[0].requestLength 1300B
param **.source_022.app[0].replyLength 20B
param **.source_022.app[0].thinkTime 0s
param **.source_022.app[0].numRequestsPerSession 77
param **.source_023.numApps 1
param **.source_023.app[0].typename "\"TcpBasicClientApp\""
param **.source_023.app[0].localAddress "\"\""
param **.source_023.app[0].connectAddress "\"sink_023\""
param **.source_023.app[0].connectPort 1100
param **.source_023.app[0].startTime 0s
param **.source_023.app[0].idleInterval 1000s
param **.source_023.app[0].requestLength 1300B
param **.source_023.app[0].replyLength 20B
param **.source_023.app[0].thinkTime 0s
param **.source_023.app[0].numRequestsPerSession 77
param **.source_024.numApps 1
param **.source_024.app[0].typename "\"TcpBasicClientApp\""
param **.source_024.app[0].localAddress "\"\""
param **.source_024.app[0].connectAddress "\"sink_024\""
param **.source_024.app[0].connectPort 1100
param **.source_024.app[0].startTime 0s
param **.source_024.app[0].idleInterval 1000s
param **.source_024.app[0].requestLength 1300B
param **.source_024.app[0].replyLength 20B
param **.source_024.app[0].thinkTime 0s
param **.source_024.app[0].numRequestsPerSession 77
param **.source_025.numApps 1
param **.source_025.app[0].typename "\"TcpBasicClientApp\""
param **.source_025.app[0].localAddress "\"\""
param **.source_025.app[0].connectAddress "\"sink_025\""
param **.source_025.app[0].connectPort 1100
param **.source_025.app[0].startTime 0s
param **.source_025.app[0].idleInterval 1000s
param **.source_025.app[0].requestLength 1300B
param **.source_025.app[0].replyLength 20B
param **.source_025.app[0].thinkTime 0s
param **.source_025.app[0].numRequestsPerSession 77
param **.source_026.numApps 1
param **.source_026.app[0].typename "\"TcpBasicClientApp\""
param **.source_026.app[0].localAddress "\"\""
param **.source_026.app[0].connectAddress "\"sink_026\""
param **.source_026.app[0].connectPort 1100
param **.source_026.app[0].startTime 0s
param **.source_026.app[0].idleInterval 1000s
param **.source_026.app[0].requestLength 1300B
param **.source_026.app[0].replyLength 20B
param **.source_026.app[0].thinkTime 0s
param **.source_026.app[0].numRequestsPerSession 77
param **.source_027.numApps 1
param **.source_027.app[0].typename "\"TcpBasicClientApp\""
param **.source_027.app[0].localAddress "\"\""
param **.source_027.app[0].connectAddress "\"sink_027\""
param **.source_027.app[0].connectPort 1100
param **.source_027.app[0].startTime 0s
param **.source_027.app[0].idleInterval 1000s
param **.source_027.app[0].requestLength 1300B
param **.source_027.app[0].replyLength 20B
param **.source_027.app[0].thinkTime 0s
param **.source_027.app[0].numRequestsPerSession 77
param **.source_028.numApps 1
param **.source_028.app[0].typename "\"TcpBasicClientApp\""
param **.source_028.app[0].localAddress "\"\""
param **.source_028.app[0].connectAddress "\"sink_028\""
param **.source_028.app[0].connectPort 1100
param **.source_028.app[0].startTime 0s
param **.source_028.app[0].idleInterval 1000s
param **.source_028.app[0].requestLength 1300B
param **.source_028.app[0].replyLength 20B
param **.source_028.app[0].thinkTime 0s
param **.source_028.app[0].numRequestsPerSession 77
param **.source_029.numApps 1
param **.source_029.app[0].typename "\"TcpBasicClientApp\""
param **.source_029.app[0].localAddress "\"\""
param **.source_029.app[0].connectAddress "\"sink_029\""
param **.source_029.app[0].connectPort 1100
param **.source_029.app[0].startTime 0s
param **.source_029.app[0].idleInterval 1000s
param **.source_029.app[0].requestLength 1300B
param **.source_029.app[0].replyLength 20B
param **.source_029.app[0].thinkTime 0s
param **.source_029.app[0].numRequestsPerSession 77
param **.source_030.numApps 1
param **.source_030.app[0].typename "\"TcpBasicClientApp\""
param **.source_030.app[0].localAddress "\"\""
param **.source_030.app[0].connectAddress "\"sink_030\""
param **.source_030.app[0].connectPort 1100
param **.source_030.app[0].startTime 0s
param **.source_030.app[0].idleInterval 1000s
param **.source_030.app[0].requestLength 1300B
param **.source_030.app[0].replyLength 20B
param **.source_030.app[0].thinkTime 0s
param **.source_030.app[0].numRequestsPerSession 77
param **.source_031.numApps 1
param **.source_031.app[0].typename "\"TcpBasicClientApp\""
param **.source_031.app[0].localAddress "\"\""
param **.source_031.app[0].connectAddress "\"sink_031\""
param **.source_031.app[0].connectPort 1100
param **.source_031.app[0].startTime 0s
param **.source_031.app[0].idleInterval 1000s
param **.source_031.app[0].requestLength 1300B
param **.source_031.app[0].replyLength 20B
param **.source_031.app[0].thinkTime 0s
param **.source_031.app[0].numRequestsPerSession 77
param **.source_032.numApps 1
param **.source_032.app[0].typename "\"TcpBasicClientApp\""
param **.source_032.app[0].localAddress "\"\""
param **.source_032.app[0].connectAddress "\"sink_032\""
param **.source_032.app[0].connectPort 1100
param **.source_032.app[0].startTime 0s
param **.source_032.app[0].idleInterval 1000s
param **.source_032.app[0].requestLength 1300B
param **.source_032.app[0].replyLength 20B
param **.source_032.app[0].thinkTime 0s
param **.source_032.app[0].numRequestsPerSession 77
param **.source_033.numApps 1
param **.source_033.app[0].typename "\"TcpBasicClientApp\""
param **.source_033.app[0].localAddress "\"\""
param **.source_033.app[0].connectAddress "\"sink_033\""
param **.source_033.app[0].connectPort 1100
param **.source_033.app[0].startTime 0s
param **.source_033.app[0].idleInterval 1000s
param **.source_033.app[0].requestLength 1300B
param **.source_033.app[0].replyLength 20B
param **.source_033.app[0].thinkTime 0s
param **.source_033.app[0].numRequestsPerSession 77
param **.source_034.numApps 1
param **.source_034.app[0].typename "\"TcpBasicClientApp\""
param **.source_034.app[0].localAddress "\"\""
param **.source_034.app[0].connectAddress "\"sink_034\""
param **.source_034.app[0].connectPort 1100
param **.source_034.app[0].startTime 0s
param **.source_034.app[0].idleInterval 1000s
param **.source_034.app[0].requestLength 1300B
param **.source_034.app[0].replyLength 20B
param **.source_034.app[0].thinkTime 0s
param **.source_034.app[0].numRequestsPerSession 77
param **.source_035.numApps 1
param **.source_035.app[0].typename "\"TcpBasicClientApp\""
param **.source_035.app[0].localAddress "\"\""
param **.source_035.app[0].connectAddress "\"sink_035\""
param **.source_035.app[0].connectPort 1100
param **.source_035.app[0].startTime 0s
param **.source_035.app[0].idleInterval 1000s
param **.source_035.app[0].requestLength 1300B
param **.source_035.app[0].replyLength 20B
param **.source_035.app[0].thinkTime 0s
param **.source_035.app[0].numRequestsPerSession 77
param **.source_036.numApps 1
param **.source_036.app[0].typename "\"TcpBasicClientApp\""
param **.source_036.app[0].localAddress "\"\""
param **.source_036.app[0].connectAddress "\"sink_036\""
param **.source_036.app[0].connectPort 1100
param **.source_036.app[0].startTime 0s
param **.source_036.app[0].idleInterval 1000s
param **.source_036.app[0].requestLength 1300B
param **.source_036.app[0].replyLength 20B
param **.source_036.app[0].thinkTime 0s
param **.source_036.app[0].numRequestsPerSession 77
param **.source_037.numApps 1
param **.source_037.app[0].typename "\"TcpBasicClientApp\""
param **.source_037.app[0].localAddress "\"\""
param **.source_037.app[0].connectAddress "\"sink_037\""
param **.source_037.app[0].connectPort 1100
param **.source_037.app[0].startTime 0s
param **.source_037.app[0].idleInterval 1000s
param **.source_037.app[0].requestLength 1300B
param **.source_037.app[0].replyLength 20B
param **.source_037.app[0].thinkTime 0s
param **.source_037.app[0].numRequestsPerSession 77
param **.source_038.numApps 1
param **.source_038.app[0].typename "\"TcpBasicClientApp\""
param **.source_038.app[0].localAddress "\"\""
param **.source_038.app[0].connectAddress "\"sink_038\""
param **.source_038.app[0].connectPort 1100
param **.source_038.app[0].startTime 0s
param **.source_038.app[0].idleInterval 1000s
param **.source_038.app[0].requestLength 1300B
param **.source_038.app[0].replyLength 20B
param **.source_038.app[0].thinkTime 0s
param **.source_038.app[0].numRequestsPerSession 77
param **.source_039.numApps 1
param **.source_039.app[0].typename "\"TcpBasicClientApp\""
param **.source_039.app[0].localAddress "\"\""
param **.source_039.app[0].connectAddress "\"sink_039\""
param **.source_039.app[0].connectPort 1100
param **.source_039.app[0].startTime 0s
param **.source_039.app[0].idleInterval 1000s
param **.source_039.app[0].requestLength 1300B
param **.source_039.app[0].replyLength 20B
param **.source_039.app[0].thinkTime 0s
param **.source_039.app[0].numRequestsPerSession 77
param **.source_040.numApps 1
param **.source_040.app[0].typename "\"TcpBasicClientApp\""
param **.source_040.app[0].localAddress "\"\""
param **.source_040.app[0].connectAddress "\"sink_040\""
param **.source_040.app[0].connectPort 1100
param **.source_040.app[0].startTime 0s
param **.source_040.app[0].idleInterval 1000s
param **.source_040.app[0].requestLength 1300B
param **.source_040.app[0].replyLength 20B
param **.source_040.app[0].thinkTime 0s
param **.source_040.app[0].numRequestsPerSession 77
param **.source_041.numApps 1
param **.source_041.app[0].typename "\"TcpBasicClientApp\""
param **.source_041.app[0].localAddress "\"\""
param **.source_041.app[0].connectAddress "\"sink_041\""
param **.source_041.app[0].connectPort 1100
param **.source_041.app[0].startTime 0s
param **.source_041.app[0].idleInterval 1000s
param **.source_041.app[0].requestLength 1300B
param **.source_041.app[0].replyLength 20B
param **.source_041.app[0].thinkTime 0s
param **.source_041.app[0].numRequestsPerSession 77
param **.source_042.numApps 1
param **.source_042.app[0].typename "\"TcpBasicClientApp\""
param **.source_042.app[0].localAddress "\"\""
param **.source_042.app[0].connectAddress "\"sink_042\""
param **.source_042.app[0].connectPort 1100
param **.source_042.app[0].startTime 0s
param **.source_042.app[0].idleInterval 1000s
param **.source_042.app[0].requestLength 1300B
param **.source_042.app[0].replyLength 20B
param **.source_042.app[0].thinkTime 0s
param **.source_042.app[0].numRequestsPerSession 77
param **.source_043.numApps 1
param **.source_043.app[0].typename "\"TcpBasicClientApp\""
param **.source_043.app[0].localAddress "\"\""
param **.source_043.app[0].connectAddress "\"sink_043\""
param **.source_043.app[0].connectPort 1100
param **.source_043.app[0].startTime 0s
param **.source_043.app[0].idleInterval 1000s
param **.source_043.app[0].requestLength 1300B
param **.source_043.app[0].replyLength 20B
param **.source_043.app[0].thinkTime 0s
param **.source_043.app[0].numRequestsPerSession 77
param **.source_044.numApps 1
param **.source_044.app[0].typename "\"TcpBasicClientApp\""
param **.source_044.app[0].localAddress "\"\""
param **.source_044.app[0].connectAddress "\"sink_044\""
param **.source_044.app[0].connectPort 1100
param **.source_044.app[0].startTime 0s
param **.source_044.app[0].idleInterval 1000s
param **.source_044.app[0].requestLength 1300B
param **.source_044.app[0].replyLength 20B
param **.source_044.app[0].thinkTime 0s
param **.source_044.app[0].numRequestsPerSession 77
param **.source_045.numApps 1
param **.source_045.app[0].typename "\"TcpBasicClientApp\""
param **.source_045.app[0].localAddress "\"\""
param **.source_045.app[0].connectAddress "\"sink_045\""
param **.source_045.app[0].connectPort 1100
param **.source_045.app[0].startTime 0s
param **.source_045.app[0].idleInterval 1000s
param **.source_045.app[0].requestLength 1300B
param **.source_045.app[0].replyLength 20B
param **.source_045.app[0].thinkTime 0s
param **.source_045.app[0].numRequestsPerSession 77
param **.source_046.numApps 1
param **.source_046.app[0].typename "\"TcpBasicClientApp\""
param **.source_046.app[0].localAddress "\"\""
param **.source_046.app[0].connectAddress "\"sink_046\""
param **.source_046.app[0].connectPort 1100
param **.source_046.app[0].startTime 0s
param **.source_046.app[0].idleInterval 1000s
param **.source_046.app[0].requestLength 1300B
param **.source_046.app[0].replyLength 20B
param **.source_046.app[0].thinkTime 0s
param **.source_046.app[0].numRequestsPerSession 77
param **.source_047.numApps 1
param **.source_047.app[0].typename "\"TcpBasicClientApp\""
param **.source_047.app[0].localAddress "\"\""
param **.source_047.app[0].connectAddress "\"sink_047\""
param **.source_047.app[0].connectPort 1100
param **.source_047.app[0].startTime 0s
param **.source_047.app[0].idleInterval 1000s
param **.source_047.app[0].requestLength 1300B
param **.source_047.app[0].replyLength 20B
param **.source_047.app[0].thinkTime 0s
param **.source_047.app[0].numRequestsPerSession 77
param **.source_048.numApps 1
param **.source_048.app[0].typename "\"TcpBasicClientApp\""
param **.source_048.app[0].localAddress "\"\""
param **.source_048.app[0].connectAddress "\"sink_048\""
param **.source_048.app[0].connectPort 1100
param **.source_048.app[0].startTime 0s
param **.source_048.app[0].idleInterval 1000s
param **.source_048.app[0].requestLength 1300B
param **.source_048.app[0].replyLength 20B
param **.source_048.app[0].thinkTime 0s
param **.source_048.app[0].numRequestsPerSession 77
param **.source_049.numApps 1
param **.source_049.app[0].typename "\"TcpBasicClientApp\""
param **.source_049.app[0].localAddress "\"\""
param **.source_049.app[0].connectAddress "\"sink_049\""
param **.source_049.app[0].connectPort 1100
param **.source_049.app[0].startTime 0s
param **.source_049.app[0].idleInterval 1000s
param **.source_049.app[0].requestLength 1300B
param **.source_049.app[0].replyLength 20B
param **.source_049.app[0].thinkTime 0s
param **.source_049.app[0].numRequestsPerSession 77
param **.source_050.numApps 1
param **.source_050.app[0].typename "\"TcpBasicClientApp\""
param **.source_050.app[0].localAddress "\"\""
param **.source_050.app[0].connectAddress "\"sink_050\""
param **.source_050.app[0].connectPort 1100
param **.source_050.app[0].startTime 0s
param **.source_050.app[0].idleInterval 1000s
param **.source_050.app[0].requestLength 1300B
param **.source_050.app[0].replyLength 20B
param **.source_050.app[0].thinkTime 0s
param **.source_050.app[0].numRequestsPerSession 77
param **.source_051.numApps 1
param **.source_051.app[0].typename "\"TcpBasicClientApp\""
param **.source_051.app[0].localAddress "\"\""
param **.source_051.app[0].connectAddress "\"sink_051\""
param **.source_051.app[0].connectPort 1100
param **.source_051.app[0].startTime 0s
param **.source_051.app[0].idleInterval 1000s
param **.source_051.app[0].requestLength 1300B
param **.source_051.app[0].replyLength 20B
param **.source_051.app[0].thinkTime 0s
param **.source_051.app[0].numRequestsPerSession 77
param **.source_052.numApps 1
param **.source_052.app[0].typename "\"TcpBasicClientApp\""
param **.source_052.app[0].localAddress "\"\""
param **.source_052.app[0].connectAddress "\"sink_052\""
param **.source_052.app[0].connectPort 1100
param **.source_052.app[0].startTime 0s
param **.source_052.app[0].idleInterval 1000s
param **.source_052.app[0].requestLength 1300B
param **.source_052.app[0].replyLength 20B
param **.source_052.app[0].thinkTime 0s
param **.source_052.app[0].numRequestsPerSession 77
param **.source_053.numApps 1
param **.source_053.app[0].typename "\"TcpBasicClientApp\""
param **.source_053.app[0].localAddress "\"\""
param **.source_053.app[0].connectAddress "\"sink_053\""
param **.source_053.app[0].connectPort 1100
param **.source_053.app[0].startTime 0s
param **.source_053.app[0].idleInterval 1000s
param **.source_053.app[0].requestLength 1300B
param **.source_053.app[0].replyLength 20B
param **.source_053.app[0].thinkTime 0s
param **.source_053.app[0].numRequestsPerSession 77
param **.source_054.numApps 1
param **.source_054.app[0].typename "\"TcpBasicClientApp\""
param **.source_054.app[0].localAddress "\"\""
param **.source_054.app[0].connectAddress "\"sink_054\""
param **.source_054.app[0].connectPort 1100
param **.source_054.app[0].startTime 0s
param **.source_054.app[0].idleInterval 1000s
param **.source_054.app[0].requestLength 1300B
param **.source_054.app[0].replyLength 20B
param **.source_054.app[0].thinkTime 0s
param **.source_054.app[0].numRequestsPerSession 77
param **.source_055.numApps 1
param **.source_055.app[0].typename "\"TcpBasicClientApp\""
param **.source_055.app[0].localAddress "\"\""
param **.source_055.app[0].connectAddress "\"sink_055\""
param **.source_055.app[0].connectPort 1100
param **.source_055.app[0].startTime 0s
param **.source_055.app[0].idleInterval 1000s
param **.source_055.app[0].requestLength 1300B
param **.source_055.app[0].replyLength 20B
param **.source_055.app[0].thinkTime 0s
param **.source_055.app[0].numRequestsPerSession 77
param **.source_056.numApps 1
param **.source_056.app[0].typename "\"TcpBasicClientApp\""
param **.source_056.app[0].localAddress "\"\""
param **.source_056.app[0].connectAddress "\"sink_056\""
param **.source_056.app[0].connectPort 1100
param **.source_056.app[0].startTime 0s
param **.source_056.app[0].idleInterval 1000s
param **.source_056.app[0].requestLength 1300B
param **.source_056.app[0].replyLength 20B
param **.source_056.app[0].thinkTime 0s
param **.source_056.app[0].numRequestsPerSession 77
param **.source_057.numApps 1
param **.source_057.app[0].typename "\"TcpBasicClientApp\""
param **.source_057.app[0].localAddress "\"\""
param **.source_057.app[0].connectAddress "\"sink_057\""
param **.source_057.app[0].connectPort 1100
param **.source_057.app[0].startTime 0s
param **.source_057.app[0].idleInterval 1000s
param **.source_057.app[0].requestLength 1300B
param **.source_057.app[0].replyLength 20B
param **.source_057.app[0].thinkTime 0s
param **.source_057.app[0].numRequestsPerSession 77
param **.source_058.numApps 1
param **.source_058.app[0].typename "\"TcpBasicClientApp\""
param **.source_058.app[0].localAddress "\"\""
param **.source_058.app[0].connectAddress "\"sink_058\""
param **.source_058.app[0].connectPort 1100
param **.source_058.app[0].startTime 0s
param **.source_058.app[0].idleInterval 1000s
param **.source_058.app[0].requestLength 1300B
param **.source_058.app[0].replyLength 20B
param **.source_058.app[0].thinkTime 0s
param **.source_058.app[0].numRequestsPerSession 77
param **.source_059.numApps 1
param **.source_059.app[0].typename "\"TcpBasicClientApp\""
param **.source_059.app[0].localAddress "\"\""
param **.source_059.app[0].connectAddress "\"sink_059\""
param **.source_059.app[0].connectPort 1100
param **.source_059.app[0].startTime 0s
param **.source_059.app[0].idleInterval 1000s
param **.source_059.app[0].requestLength 1300B
param **.source_059.app[0].replyLength 20B
param **.source_059.app[0].thinkTime 0s
param **.source_059.app[0].numRequestsPerSession 77
param **.source_060.numApps 1
param **.source_060.app[0].typename "\"TcpBasicClientApp\""
param **.source_060.app[0].localAddress "\"\""
param **.source_060.app[0].connectAddress "\"sink_060\""
param **.source_060.app[0].connectPort 1100
param **.source_060.app[0].startTime 0s
param **.source_060.app[0].idleInterval 1000s
param **.source_060.app[0].requestLength 1300B
param **.source_060.app[0].replyLength 20B
param **.source_060.app[0].thinkTime 0s
param **.source_060.app[0].numRequestsPerSession 77
param **.source_061.numApps 1
param **.source_061.app[0].typename "\"TcpBasicClientApp\""
param **.source_061.app[0].localAddress "\"\""
param **.source_061.app[0].connectAddress "\"sink_061\""
param **.source_061.app[0].connectPort 1100
param **.source_061.app[0].startTime 0s
param **.source_061.app[0].idleInterval 1000s
param **.source_061.app[0].requestLength 1300B
param **.source_061.app[0].replyLength 20B
param **.source_061.app[0].thinkTime 0s
param **.source_061.app[0].numRequestsPerSession 77
param **.source_062.numApps 1
param **.source_062.app[0].typename "\"TcpBasicClientApp\""
param **.source_062.app[0].localAddress "\"\""
param **.source_062.app[0].connectAddress "\"sink_062\""
param **.source_062.app[0].connectPort 1100
param **.source_062.app[0].startTime 0s
param **.source_062.app[0].idleInterval 1000s
param **.source_062.app[0].requestLength 1300B
param **.source_062.app[0].replyLength 20B
param **.source_062.app[0].thinkTime 0s
param **.source_062.app[0].numRequestsPerSession 77
param **.source_063.numApps 1
param **.source_063.app[0].typename "\"TcpBasicClientApp\""
param **.source_063.app[0].localAddress "\"\""
param **.source_063.app[0].connectAddress "\"sink_063\""
param **.source_063.app[0].connectPort 1100
param **.source_063.app[0].startTime 0s
param **.source_063.app[0].idleInterval 1000s
param **.source_063.app[0].requestLength 1300B
param **.source_063.app[0].replyLength 20B
param **.source_063.app[0].thinkTime 0s
param **.source_063.app[0].numRequestsPerSession 77
param **.source_064.numApps 1
param **.source_064.app[0].typename "\"TcpBasicClientApp\""
param **.source_064.app[0].localAddress "\"\""
param **.source_064.app[0].connectAddress "\"sink_064\""
param **.source_064.app[0].connectPort 1100
param **.source_064.app[0].startTime 0s
param **.source_064.app[0].idleInterval 1000s
param **.source_064.app[0].requestLength 1300B
param **.source_064.app[0].replyLength 20B
param **.source_064.app[0].thinkTime 0s
param **.source_064.app[0].numRequestsPerSession 77
param **.source_065.numApps 1
param **.source_065.app[0].typename "\"TcpBasicClientApp\""
param **.source_065.app[0].localAddress "\"\""
param **.source_065.app[0].connectAddress "\"sink_065\""
param **.source_065.app[0].connectPort 1100
param **.source_065.app[0].startTime 0s
param **.source_065.app[0].idleInterval 1000s
param **.source_065.app[0].requestLength 1300B
param **.source_065.app[0].replyLength 20B
param **.source_065.app[0].thinkTime 0s
param **.source_065.app[0].numRequestsPerSession 77
param **.source_066.numApps 1
param **.source_066.app[0].typename "\"TcpBasicClientApp\""
param **.source_066.app[0].localAddress "\"\""
param **.source_066.app[0].connectAddress "\"sink_066\""
param **.source_066.app[0].connectPort 1100
param **.source_066.app[0].startTime 0s
param **.source_066.app[0].idleInterval 1000s
param **.source_066.app[0].requestLength 1300B
param **.source_066.app[0].replyLength 20B
param **.source_066.app[0].thinkTime 0s
param **.source_066.app[0].numRequestsPerSession 77
param **.source_067.numApps 1
param **.source_067.app[0].typename "\"TcpBasicClientApp\""
param **.source_067.app[0].localAddress "\"\""
param **.source_067.app[0].connectAddress "\"sink_067\""
param **.source_067.app[0].connectPort 1100
param **.source_067.app[0].startTime 0s
param **.source_067.app[0].idleInterval 1000s
param **.source_067.app[0].requestLength 1300B
param **.source_067.app[0].replyLength 20B
param **.source_067.app[0].thinkTime 0s
param **.source_067.app[0].numRequestsPerSession 77
param **.source_068.numApps 1
param **.source_068.app[0].typename "\"TcpBasicClientApp\""
param **.source_068.app[0].localAddress "\"\""
param **.source_068.app[0].connectAddress "\"sink_068\""
param **.source_068.app[0].connectPort 1100
param **.source_068.app[0].startTime 0s
param **.source_068.app[0].idleInterval 1000s
param **.source_068.app[0].requestLength 1300B
param **.source_068.app[0].replyLength 20B
param **.source_068.app[0].thinkTime 0s
param **.source_068.app[0].numRequestsPerSession 77
param **.source_069.numApps 1
param **.source_069.app[0].typename "\"TcpBasicClientApp\""
param **.source_069.app[0].localAddress "\"\""
param **.source_069.app[0].connectAddress "\"sink_069\""
param **.source_069.app[0].connectPort 1100
param **.source_069.app[0].startTime 0s
param **.source_069.app[0].idleInterval 1000s
param **.source_069.app[0].requestLength 1300B
param **.source_069.app[0].replyLength 20B
param **.source_069.app[0].thinkTime 0s
param **.source_069.app[0].numRequestsPerSession 77
param **.source_070.numApps 1
param **.source_070.app[0].typename "\"TcpBasicClientApp\""
param **.source_070.app[0].localAddress "\"\""
param **.source_070.app[0].connectAddress "\"sink_070\""
param **.source_070.app[0].connectPort 1100
param **.source_070.app[0].startTime 0s
param **.source_070.app[0].idleInterval 1000s
param **.source_070.app[0].requestLength 1300B
param **.source_070.app[0].replyLength 20B
param **.source_070.app[0].thinkTime 0s
param **.source_070.app[0].numRequestsPerSession 77
param **.source_071.numApps 1
param **.source_071.app[0].typename "\"TcpBasicClientApp\""
param **.source_071.app[0].localAddress "\"\""
param **.source_071.app[0].connectAddress "\"sink_071\""
param **.source_071.app[0].connectPort 1100
param **.source_071.app[0].startTime 0s
param **.source_071.app[0].idleInterval 1000s
param **.source_071.app[0].requestLength 1300B
param **.source_071.app[0].replyLength 20B
param **.source_071.app[0].thinkTime 0s
param **.source_071.app[0].numRequestsPerSession 77
param **.source_072.numApps 1
param **.source_072.app[0].typename "\"TcpBasicClientApp\""
param **.source_072.app[0].localAddress "\"\""
param **.source_072.app[0].connectAddress "\"sink_072\""
param **.source_072.app[0].connectPort 1100
param **.source_072.app[0].startTime 0s
param **.source_072.app[0].idleInterval 1000s
param **.source_072.app[0].requestLength 1300B
param **.source_072.app[0].replyLength 20B
param **.source_072.app[0].thinkTime 0s
param **.source_072.app[0].numRequestsPerSession 77
param **.source_073.numApps 1
param **.source_073.app[0].typename "\"TcpBasicClientApp\""
param **.source_073.app[0].localAddress "\"\""
param **.source_073.app[0].connectAddress "\"sink_073\""
param **.source_073.app[0].connectPort 1100
param **.source_073.app[0].startTime 0s
param **.source_073.app[0].idleInterval 1000s
param **.source_073.app[0].requestLength 1300B
param **.source_073.app[0].replyLength 20B
param **.source_073.app[0].thinkTime 0s
param **.source_073.app[0].numRequestsPerSession 77
param **.source_074.numApps 1
param **.source_074.app[0].typename "\"TcpBasicClientApp\""
param **.source_074.app[0].localAddress "\"\""
param **.source_074.app[0].connectAddress "\"sink_074\""
param **.source_074.app[0].connectPort 1100
param **.source_074.app[0].startTime 0s
param **.source_074.app[0].idleInterval 1000s
param **.source_074.app[0].requestLength 1300B
param **.source_074.app[0].replyLength 20B
param **.source_074.app[0].thinkTime 0s
param **.source_074.app[0].numRequestsPerSession 77
param **.source_075.numApps 1
param **.source_075.app[0].typename "\"TcpBasicClientApp\""
param **.source_075.app[0].localAddress "\"\""
param **.source_075.app[0].connectAddress "\"sink_075\""
param **.source_075.app[0].connectPort 1100
param **.source_075.app[0].startTime 0s
param **.source_075.app[0].idleInterval 1000s
param **.source_075.app[0].requestLength 1300B
param **.source_075.app[0].replyLength 20B
param **.source_075.app[0].thinkTime 0s
param **.source_075.app[0].numRequestsPerSession 77
param **.source_076.numApps 1
param **.source_076.app[0].typename "\"TcpBasicClientApp\""
param **.source_076.app[0].localAddress "\"\""
param **.source_076.app[0].connectAddress "\"sink_076\""
param **.source_076.app[0].connectPort 1100
param **.source_076.app[0].startTime 0s
param **.source_076.app[0].idleInterval 1000s
param **.source_076.app[0].requestLength 1300B
param **.source_076.app[0].replyLength 20B
param **.source_076.app[0].thinkTime 0s
param **.source_076.app[0].numRequestsPerSession 77
param **.source_077.numApps 1
param **.source_077.app[0].typename "\"TcpBasicClientApp\""
param **.source_077.app[0].localAddress "\"\""
param **.source_077.app[0].connectAddress "\"sink_077\""
param **.source_077.app[0].connectPort 1100
param **.source_077.app[0].startTime 0s
param **.source_077.app[0].idleInterval 1000s
param **.source_077.app[0].requestLength 1300B
param **.source_077.app[0].replyLength 20B
param **.source_077.app[0].thinkTime 0s
param **.source_077.app[0].numRequestsPerSession 77
param **.source_078.numApps 1
param **.source_078.app[0].typename "\"TcpBasicClientApp\""
param **.source_078.app[0].localAddress "\"\""
param **.source_078.app[0].connectAddress "\"sink_078\""
param **.source_078.app[0].connectPort 1100
param **.source_078.app[0].startTime 0s
param **.source_078.app[0].idleInterval 1000s
param **.source_078.app[0].requestLength 1300B
param **.source_078.app[0].replyLength 20B
param **.source_078.app[0].thinkTime 0s
param **.source_078.app[0].numRequestsPerSession 77
param **.source_079.numApps 1
param **.source_079.app[0].typename "\"TcpBasicClientApp\""
param **.source_079.app[0].localAddress "\"\""
param **.source_079.app[0].connectAddress "\"sink_079\""
param **.source_079.app[0].connectPort 1100
param **.source_079.app[0].startTime 0s
param **.source_079.app[0].idleInterval 1000s
param **.source_079.app[0].requestLength 1300B
param **.source_079.app[0].replyLength 20B
param **.source_079.app[0].thinkTime 0s
param **.source_079.app[0].numRequestsPerSession 77
param **.tcp.mss 1400
param **.tcp.tcpAlgorithmClass "\"TcpReno\""
param **.tcp.crcMode "\"computed\""
param **.app[*].dataTransferMode "\"object\""

vector 0 VL2_8_8_1_seed1_jitter.source_000.app[0] numActiveSessions:vector ETV
attr interpolationmode sample-hold
attr source sum(connect)
attr title "number of active sessions, vector"
vector 1 VL2_8_8_1_seed1_jitter.source_001.app[0] numActiveSessions:vector ETV
attr interpolationmode sample-hold
attr source sum(connect)
attr title "number of active sessions, vector"
vector 2 VL2_8_8_1_seed1_jitter.source_002.app[0] numActiveSessions:vector ETV
attr interpolationmode sample-hold
attr source sum(connect)
attr title "number of active sessions, vector"
vector 3 VL2_8_8_1_seed1_jitter.source_003.app[0] numActiveSessions:vector ETV
attr interpolationmode sample-hold
attr source sum(connect)
attr title "number of active sessions, vector"
vector 4 VL2_8_8_1_seed1_jitter.source_004.app[0] numActiveSessions:vector ETV
attr interpolationmode sample-hold
attr source sum(connect)
attr title "number of active sessions, vector"
vector 5 VL2_8_8_1_seed1_jitter.source_005.app[0] numActiveSessions:vector ETV
attr interpolationmode sample-hold
attr source sum(connect)
attr title "number of active sessions, vector"
vector 6 VL2_8_8_1_seed1_jitter.source_006.app[0] numActiveSessions:vector ETV
attr interpolationmode sample-hold
attr source sum(connect)
attr title "number of active sessions, vector"
vector 7 VL2_8_8_1_seed1_jitter.source_007.app[0] numActiveSessions:vector ETV
attr interpolationmode sample-hold
attr source sum(connect)
attr title "number of active sessions, vector"
vector 8 VL2_8_8_1_seed1_jitter.source_008.app[0] numActiveSessions:vector ETV
attr interpolationmode sample-hold
attr source sum(connect)
attr title "number of active sessions, vector"
vector 9 VL2_8_8_1_seed1_jitter.source_009.app[0] numActiveSessions:vector ETV
attr interpolationmode sample-hold
attr source sum(connect)
attr title "number of active sessions, vector"
vector 10 VL2_8_8_1_seed1_jitter.source_010.app[0] numActiveSessions:vector ETV
attr interpolationmode sample-hold
attr source sum(connect)
attr title "number of active sessions, vector"
vector 11 VL2_8_8_1_seed1_jitter.source_011.app[0] numActiveSessions:vector ETV
attr interpolationmode sample-hold
attr source sum(connect)
attr title "number of active sessions, vector"
vector 12 VL2_8_8_1_seed1_jitter.source_012.app[0] numActiveSessions:vector ETV
attr interpolationmode sample-hold
attr source sum(connect)
attr title "number of active sessions, vector"
vector 13 VL2_8_8_1_seed1_jitter.source_013.app[0] numActiveSessions:vector ETV
attr interpolationmode sample-hold
attr source sum(connect)
attr title "number of active sessions, vector"
vector 14 VL2_8_8_1_seed1_jitter.source_014.app[0] numActiveSessions:vector ETV
attr interpolationmode sample-hold
attr source sum(connect)
attr title "number of active sessions, vector"
vector 15 VL2_8_8_1_seed1_jitter.source_015.app[0] numActiveSessions:vector ETV
attr interpolationmode sample-hold
attr source sum(connect)
attr title "number of active sessions, vector"
vector 16 VL2_8_8_1_seed1_jitter.source_016.app[0] numActiveSessions:vector ETV
attr interpolationmode sample-hold
attr source sum(connect)
attr title "number of active sessions, vector"
vector 17 VL2_8_8_1_seed1_jitter.source_017.app[0] numActiveSessions:vector ETV
attr interpolationmode sample-hold
attr source sum(connect)
attr title "number of active sessions, vector"
vector 18 VL2_8_8_1_seed1_jitter.source_018.app[0] numActiveSessions:vector ETV
attr interpolationmode sample-hold
attr source sum(connect)
attr title "number of active sessions, vector"
vector 19 VL2_8_8_1_seed1_jitter.source_019.app[0] numActiveSessions:vector ETV
attr interpolationmode sample-hold
attr source sum(connect)
attr title "number of active sessions, vector"
vector 20 VL2_8_8_1_seed1_jitter.source_020.app[0] numActiveSessions:vector ETV
attr interpolationmode sample-hold
attr source sum(connect)
attr title "number of active sessions, vector"
vector 21 VL2_8_8_1_seed1_jitter.source_021.app[0] numActiveSessions:vector ETV
attr interpolationmode sample-hold
attr source sum(connect)
attr title "number of active sessions, vector"
vector 22 VL2_8_8_1_seed1_jitter.source_022.app[0] numActiveSessions:vector ETV
attr interpolationmode sample-hold
attr source sum(connect)
attr title "number of active sessions, vector"
vector 23 VL2_8_8_1_seed1_jitter.source_023.app[0] numActiveSessions:vector ETV
attr interpolationmode sample-hold
attr source sum(connect)
attr title "number of active sessions, vector"
vector 24 VL2_8_8_1_seed1_jitter.source_024.app[0] numActiveSessions:vector ETV
attr interpolationmode sample-hold
attr source sum(connect)
attr title "number of active sessions, vector"
vector 25 VL2_8_8_1_seed1_jitter.source_025.app[0] numActiveSessions:vector ETV
attr interpolationmode sample-hold
attr source sum(connect)
attr title "number of active sessions, vector"
vector 26 VL2_8_8_1_seed1_jitter.source_026.app[0] numActiveSessions:vector ETV
attr interpolationmode sample-hold
attr source sum(connect)
attr title "number of active sessions, vector"
vector 27 VL2_8_8_1_seed1_jitter.source_027.app[0] numActiveSessions:vector ETV
attr interpolationmode sample-hold
attr source sum(connect)
attr title "number of active sessions, vector"
vector 28 VL2_8_8_1_seed1_jitter.source_028.app[0] numActiveSessions:vector ETV
attr interpolationmode sample-hold
attr source sum(connect)
attr title "number of active sessions, vector"
vector 29 VL2_8_8_1_seed1_jitter.source_029.app[0] numActiveSessions:vector ETV
attr interpolationmode sample-hold
attr source sum(connect)
attr title "number of active sessions, vector"
vector 30 VL2_8_8_1_seed1_jitter.source_030.app[0] numActiveSessions:vector ETV
attr interpolationmode sample-hold
attr source sum(connect)
attr title "number of active sessions, vector"
vector 31 VL2_8_8_1_seed1_jitter.source_031.app[0] numActiveSessions:vector ETV
attr interpolationmode sample-hold
attr source sum(connect)
attr title "number of active sessions, vector"
vector 32 VL2_8_8_1_seed1_jitter.source_032.app[0] numActiveSessions:vector ETV
attr interpolationmode sample-hold
attr source sum(connect)
attr title "number of active sessions, vector"
vector 33 VL2_8_8_1_seed1_jitter.source_033.app[0] numActiveSessions:vector ETV
attr interpolationmode sample-hold
attr source sum(connect)
attr title "number of active sessions, vector"
vector 34 VL2_8_8_1_seed1_jitter.source_034.app[0] numActiveSessions:vector ETV
attr interpolationmode sample-hold
attr source sum(connect)
attr title "number of active sessions, vector"
vector 35 VL2_8_8_1_seed1_jitter.source_035.app[0] numActiveSessions:vector ETV
attr interpolationmode sample-hold
attr source sum(connect)
attr title "number of active sessions, vector"
vector 36 VL2_8_8_1_seed1_jitter.source_036.app[0] numActiveSessions:vector ETV
attr interpolationmode sample-hold
attr source sum(connect)
attr title "number of active sessions, vector"
vector 37 VL2_8_8_1_seed1_jitter.source_037.app[0] numActiveSessions:vector ETV
attr interpolationmode sample-hold
attr source sum(connect)
attr title "number of active sessions, vector"
vector 38 VL2_8_8_1_seed1_jitter.source_038.app[0] numActiveSessions:vector ETV
attr interpolationmode sample-hold
attr source sum(connect)
attr title "number of active sessions, vector"
vector 39 VL2_8_8_1_seed1_jitter.source_039.app[0] numActiveSessions:vector ETV
attr interpolationmode sample-hold
attr source sum(connect)
attr title "number of active sessions, vector"
vector 40 VL2_8_8_1_seed1_jitter.source_040.app[0] numActiveSessions:vector ETV
attr interpolationmode sample-hold
attr source sum(connect)
attr title "number of active sessions, vector"
vector 41 VL2_8_8_1_seed1_jitter.source_041.app[0] numActiveSessions:vector ETV
attr interpolationmode sample-hold
attr source sum(connect)
attr title "number of active sessions, vector"
vector 42 VL2_8_8_1_seed1_jitter.source_042.app[0] numActiveSessions:vector ETV
attr interpolationmode sample-hold
attr source sum(connect)
attr title "number of active sessions, vector"
vector 43 VL2_8_8_1_seed1_jitter.source_043.app[0] numActiveSessions:vector ETV
attr interpolationmode sample-hold
attr source sum(connect)
attr title "number of active sessions, vector"
vector 44 VL2_8_8_1_seed1_jitter.source_044.app[0] numActiveSessions:vector ETV
attr interpolationmode sample-hold
attr source sum(connect)
attr title "number of active sessions, vector"
vector 45 VL2_8_8_1_seed1_jitter.source_045.app[0] numActiveSessions:vector ETV
attr interpolationmode sample-hold
attr source sum(connect)
attr title "number of active sessions, vector"
vector 46 VL2_8_8_1_seed1_jitter.source_046.app[0] numActiveSessions:vector ETV
attr interpolationmode sample-hold
attr source sum(connect)
attr title "number of active sessions, vector"
vector 47 VL2_8_8_1_seed1_jitter.source_047.app[0] numActiveSessions:vector ETV
attr interpolationmode sample-hold
attr source sum(connect)
attr title "number of active sessions, vector"
vector 48 VL2_8_8_1_seed1_jitter.source_048.app[0] numActiveSessions:vector ETV
attr interpolationmode sample-hold
attr source sum(connect)
attr title "number of active sessions, vector"
vector 49 VL2_8_8_1_seed1_jitter.source_049.app[0] numActiveSessions:vector ETV
attr interpolationmode sample-hold
attr source sum(connect)
attr title "number of active sessions, vector"
vector 50 VL2_8_8_1_seed1_jitter.source_050.app[0] numActiveSessions:vector ETV
attr interpolationmode sample-hold
attr source sum(connect)
attr title "number of active sessions, vector"
vector 51 VL2_8_8_1_seed1_jitter.source_051.app[0] numActiveSessions:vector ETV
attr interpolationmode sample-hold
attr source sum(connect)
attr title "number of active sessions, vector"
vector 52 VL2_8_8_1_seed1_jitter.source_052.app[0] numActiveSessions:vector ETV
attr interpolationmode sample-hold
attr source sum(connect)
attr title "number of active sessions, vector"
vector 53 VL2_8_8_1_seed1_jitter.source_053.app[0] numActiveSessions:vector ETV
attr interpolationmode sample-hold
attr source sum(connect)
attr title "number of active sessions, vector"
vector 54 VL2_8_8_1_seed1_jitter.source_054.app[0] numActiveSessions:vector ETV
attr interpolationmode sample-hold
attr source sum(connect)
attr title "number of active sessions, vector"
vector 55 VL2_8_8_1_seed1_jitter.source_055.app[0] numActiveSessions:vector ETV
attr interpolationmode sample-hold
attr source sum(connect)
attr title "number of active sessions, vector"
vector 56 VL2_8_8_1_seed1_jitter.source_056.app[0] numActiveSessions:vector ETV
attr interpolationmode sample-hold
attr source sum(connect)
attr title "number of active sessions, vector"
vector 57 VL2_8_8_1_seed1_jitter.source_057.app[0] numActiveSessions:vector ETV
attr interpolationmode sample-hold
attr source sum(connect)
attr title "number of active sessions, vector"
vector 58 VL2_8_8_1_seed1_jitter.source_058.app[0] numActiveSessions:vector ETV
attr interpolationmode sample-hold
attr source sum(connect)
attr title "number of active sessions, vector"
vector 59 VL2_8_8_1_seed1_jitter.source_059.app[0] numActiveSessions:vector ETV
attr interpolationmode sample-hold
attr source sum(connect)
attr title "number of active sessions, vector"
vector 60 VL2_8_8_1_seed1_jitter.source_060.app[0] numActiveSessions:vector ETV
attr interpolationmode sample-hold
attr source sum(connect)
attr title "number of active sessions, vector"
vector 61 VL2_8_8_1_seed1_jitter.source_061.app[0] numActiveSessions:vector ETV
attr interpolationmode sample-hold
attr source sum(connect)
attr title "number of active sessions, vector"
vector 62 VL2_8_8_1_seed1_jitter.source_062.app[0] numActiveSessions:vector ETV
attr interpolationmode sample-hold
attr source sum(connect)
attr title "number of active sessions, vector"
vector 63 VL2_8_8_1_seed1_jitter.source_063.app[0] numActiveSessions:vector ETV
attr interpolationmode sample-hold
attr source sum(connect)
attr title "number of active sessions, vector"
vector 64 VL2_8_8_1_seed1_jitter.source_064.app[0] numActiveSessions:vector ETV
attr interpolationmode sample-hold
attr source sum(connect)
attr title "number of active sessions, vector"
vector 65 VL2_8_8_1_seed1_jitter.source_065.app[0] numActiveSessions:vector ETV
attr interpolationmode sample-hold
attr source sum(connect)
attr title "number of active sessions, vector"
vector 66 VL2_8_8_1_seed1_jitter.source_066.app[0] numActiveSessions:vector ETV
attr interpolationmode sample-hold
attr source sum(connect)
attr title "number of active sessions, vector"
vector 67 VL2_8_8_1_seed1_jitter.source_067.app[0] numActiveSessions:vector ETV
attr interpolationmode sample-hold
attr source sum(connect)
attr title "number of active sessions, vector"
vector 68 VL2_8_8_1_seed1_jitter.source_068.app[0] numActiveSessions:vector ETV
attr interpolationmode sample-hold
attr source sum(connect)
attr title "number of active sessions, vector"
vector 69 VL2_8_8_1_seed1_jitter.source_069.app[0] numActiveSessions:vector ETV
attr interpolationmode sample-hold
attr source sum(connect)
attr title "number of active sessions, vector"
vector 70 VL2_8_8_1_seed1_jitter.source_070.app[0] numActiveSessions:vector ETV
attr interpolationmode sample-hold
attr source sum(connect)
attr title "number of active sessions, vector"
vector 71 VL2_8_8_1_seed1_jitter.source_071.app[0] numActiveSessions:vector ETV
attr interpolationmode sample-hold
attr source sum(connect)
attr title "number of active sessions, vector"
vector 72 VL2_8_8_1_seed1_jitter.source_072.app[0] numActiveSessions:vector ETV
attr interpolationmode sample-hold
attr source sum(connect)
attr title "number of active sessions, vector"
vector 73 VL2_8_8_1_seed1_jitter.source_073.app[0] numActiveSessions:vector ETV
attr interpolationmode sample-hold
attr source sum(connect)
attr title "number of active sessions, vector"
vector 74 VL2_8_8_1_seed1_jitter.source_074.app[0] numActiveSessions:vector ETV
attr interpolationmode sample-hold
attr source sum(connect)
attr title "number of active sessions, vector"
vector 75 VL2_8_8_1_seed1_jitter.source_075.app[0] numActiveSessions:vector ETV
attr interpolationmode sample-hold
attr source sum(connect)
attr title "number of active sessions, vector"
vector 76 VL2_8_8_1_seed1_jitter.source_076.app[0] numActiveSessions:vector ETV
attr interpolationmode sample-hold
attr source sum(connect)
attr title "number of active sessions, vector"
vector 77 VL2_8_8_1_seed1_jitter.source_077.app[0] numActiveSessions:vector ETV
attr interpolationmode sample-hold
attr source sum(connect)
attr title "number of active sessions, vector"
vector 78 VL2_8_8_1_seed1_jitter.source_078.app[0] numActiveSessions:vector ETV
attr interpolationmode sample-hold
attr source sum(connect)
attr title "number of active sessions, vector"
vector 79 VL2_8_8_1_seed1_jitter.source_079.app[0] numActiveSessions:vector ETV
attr interpolationmode sample-hold
attr source sum(connect)
attr title "number of active sessions, vector"
vector 80 VL2_8_8_1_seed1_jitter.sink_010.app[0] endToEndDelay:vector ETV
attr interpolationmode none
attr source dataAge(packetReceived)
attr title "end-to-end delay, vector"
attr unit s
vector 81 VL2_8_8_1_seed1_jitter.sink_060.app[0] endToEndDelay:vector ETV
attr interpolationmode none
attr source dataAge(packetReceived)
attr title "end-to-end delay, vector"
attr unit s
vector 82 VL2_8_8_1_seed1_jitter.source_010.app[0] endToEndDelay:vector ETV
attr interpolationmode none
attr source dataAge(packetReceived)
attr title "end-to-end delay, vector"
attr unit s
vector 83 VL2_8_8_1_seed1_jitter.source_060.app[0] endToEndDelay:vector ETV
attr interpolationmode none
attr source dataAge(packetReceived)
attr title "end-to-end delay, vector"
attr unit s
vector 84 VL2_8_8_1_seed1_jitter.sink_011.app[0] endToEndDelay:vector ETV
attr interpolationmode none
attr source dataAge(packetReceived)
attr title "end-to-end delay, vector"
attr unit s
vector 85 VL2_8_8_1_seed1_jitter.source_011.app[0] endToEndDelay:vector ETV
attr interpolationmode none
attr source dataAge(packetReceived)
attr title "end-to-end delay, vector"
attr unit s
vector 86 VL2_8_8_1_seed1_jitter.sink_064.app[0] endToEndDelay:vector ETV
attr interpolationmode none
attr source dataAge(packetReceived)
attr title "end-to-end delay, vector"
attr unit s
vector 87 VL2_8_8_1_seed1_jitter.sink_000.app[0] endToEndDelay:vector ETV
attr interpolationmode none
attr source dataAge(packetReceived)
attr title "end-to-end delay, vector"
attr unit s
vector 88 VL2_8_8_1_seed1_jitter.sink_020.app[0] endToEndDelay:vector ETV
attr interpolationmode none
attr source dataAge(packetReceived)
attr title "end-to-end delay, vector"
attr unit s
vector 89 VL2_8_8_1_seed1_jitter.sink_050.app[0] endToEndDelay:vector ETV
attr interpolationmode none
attr source dataAge(packetReceived)
attr title "end-to-end delay, vector"
attr unit s
vector 90 VL2_8_8_1_seed1_jitter.sink_070.app[0] endToEndDelay:vector ETV
attr interpolationmode none
attr source dataAge(packetReceived)
attr title "end-to-end delay, vector"
attr unit s
vector 91 VL2_8_8_1_seed1_jitter.sink_040.app[0] endToEndDelay:vector ETV
attr interpolationmode none
attr source dataAge(packetReceived)
attr title "end-to-end delay, vector"
attr unit s
vector 92 VL2_8_8_1_seed1_jitter.sink_030.app[0] endToEndDelay:vector ETV
attr interpolationmode none
attr source dataAge(packetReceived)
attr title "end-to-end delay, vector"
attr unit s
vector 93 VL2_8_8_1_seed1_jitter.source_064.app[0] endToEndDelay:vector ETV
attr interpolationmode none
attr source dataAge(packetReceived)
attr title "end-to-end delay, vector"
attr unit s
vector 94 VL2_8_8_1_seed1_jitter.sink_013.app[0] endToEndDelay:vector ETV
attr interpolationmode none
attr source dataAge(packetReceived)
attr title "end-to-end delay, vector"
attr unit s
vector 95 VL2_8_8_1_seed1_jitter.source_000.app[0] endToEndDelay:vector ETV
attr interpolationmode none
attr source dataAge(packetReceived)
attr title "end-to-end delay, vector"
attr unit s
vector 96 VL2_8_8_1_seed1_jitter.source_020.app[0] endToEndDelay:vector ETV
attr interpolationmode none
attr source dataAge(packetReceived)
attr title "end-to-end delay, vector"
attr unit s
vector 97 VL2_8_8_1_seed1_jitter.source_050.app[0] endToEndDelay:vector ETV
attr interpolationmode none
attr source dataAge(packetReceived)
attr title "end-to-end delay, vector"
attr unit s
vector 98 VL2_8_8_1_seed1_jitter.source_040.app[0] endToEndDelay:vector ETV
attr interpolationmode none
attr source dataAge(packetReceived)
attr title "end-to-end delay, vector"
attr unit s
vector 99 VL2_8_8_1_seed1_jitter.source_030.app[0] endToEndDelay:vector ETV
attr interpolationmode none
attr source dataAge(packetReceived)
attr title "end-to-end delay, vector"
attr unit s
vector 100 VL2_8_8_1_seed1_jitter.source_070.app[0] endToEndDelay:vector ETV
attr interpolationmode none
attr source dataAge(packetReceived)
attr title "end-to-end delay, vector"
attr unit s
vector 101 VL2_8_8_1_seed1_jitter.source_013.app[0] endToEndDelay:vector ETV
attr interpolationmode none
attr source dataAge(packetReceived)
attr title "end-to-end delay, vector"
attr unit s
vector 102 VL2_8_8_1_seed1_jitter.sink_061.app[0] endToEndDelay:vector ETV
attr interpolationmode none
attr source dataAge(packetReceived)
attr title "end-to-end delay, vector"
attr unit s
vector 103 VL2_8_8_1_seed1_jitter.sink_051.app[0] endToEndDelay:vector ETV
attr interpolationmode none
attr source dataAge(packetReceived)
attr title "end-to-end delay, vector"
attr unit s
vector 104 VL2_8_8_1_seed1_jitter.sink_001.app[0] endToEndDelay:vector ETV
attr interpolationmode none
attr source dataAge(packetReceived)
attr title "end-to-end delay, vector"
attr unit s
vector 105 VL2_8_8_1_seed1_jitter.sink_021.app[0] endToEndDelay:vector ETV
attr interpolationmode none
attr source dataAge(packetReceived)
attr title "end-to-end delay, vector"
attr unit s
vector 106 VL2_8_8_1_seed1_jitter.sink_041.app[0] endToEndDelay:vector ETV
attr interpolationmode none
attr source dataAge(packetReceived)
attr title "end-to-end delay, vector"
attr unit s
vector 107 VL2_8_8_1_seed1_jitter.source_061.app[0] endToEndDelay:vector ETV
attr interpolationmode none
attr source dataAge(packetReceived)
attr title "end-to-end delay, vector"
attr unit s
vector 108 VL2_8_8_1_seed1_jitter.sink_062.app[0] endToEndDelay:vector ETV
attr interpolationmode none
attr source dataAge(packetReceived)
attr title "end-to-end delay, vector"
attr unit s
vector 109 VL2_8_8_1_seed1_jitter.sink_017.app[0] endToEndDelay:vector ETV
attr interpolationmode none
attr source dataAge(packetReceived)
attr title "end-to-end delay, vector"
attr unit s
vector 110 VL2_8_8_1_seed1_jitter.source_051.app[0] endToEndDelay:vector ETV
attr interpolationmode none
attr source dataAge(packetReceived)
attr title "end-to-end delay, vector"
attr unit s
vector 111 VL2_8_8_1_seed1_jitter.source_021.app[0] endToEndDelay:vector ETV
attr interpolationmode none
attr source dataAge(packetReceived)
attr title "end-to-end delay, vector"
attr unit s
vector 112 VL2_8_8_1_seed1_jitter.sink_052.app[0] endToEndDelay:vector ETV
attr interpolationmode none
attr source dataAge(packetReceived)
attr title "end-to-end delay, vector"
attr unit s
vector 113 VL2_8_8_1_seed1_jitter.source_041.app[0] endToEndDelay:vector ETV
attr interpolationmode none
attr source dataAge(packetReceived)
attr title "end-to-end delay, vector"
attr unit s
vector 114 VL2_8_8_1_seed1_jitter.sink_002.app[0] endToEndDelay:vector ETV
attr interpolationmode none
attr source dataAge(packetReceived)
attr title "end-to-end delay, vector"
attr unit s
vector 115 VL2_8_8_1_seed1_jitter.sink_071.app[0] endToEndDelay:vector ETV
attr interpolationmode none
attr source dataAge(packetReceived)
attr title "end-to-end delay, vector"
attr unit s
vector 116 VL2_8_8_1_seed1_jitter.sink_042.app[0] endToEndDelay:vector ETV
[...]
230	810371	1.476951	0.021094
230	817137	1.499255	0.021094
230	824843	1.521559	0.021094
230	829156	1.543863	0.021094
230	832540	1.566167	0.021094
230	835924	1.588471	0.021094
230	839308	1.610775	0.021094
230	842692	1.633079	0.021094
230	846076	1.655383	0.021094
230	849460	1.677687	0.021094
230	852843	1.699991	0.021094
230	856810	1.722295	0.021094
231	20280	0.032955	0.030123
231	35127	0.05674	0.022575
231	49894	0.081698	0.023748
231	63297	0.10355	0.020642
231	77174	0.127006	0.022246
231	89648	0.147263	0.019047
231	103789	0.170914	0.022441
231	116579	0.191871	0.019747
231	130821	0.215475	0.022327
231	143404	0.236536	0.019851
231	157566	0.26013	0.02213
231	170548	0.28144	0.0201
231	184123	0.303737	0.021073
231	198347	0.327435	0.022488
231	211255	0.348616	0.019971
231	225583	0.371784	0.021958
231	238380	0.393352	0.020358
231	252188	0.416309	0.021747
231	266484	0.44005	0.022531
231	278472	0.459707	0.018447
231	294968	0.487305	0.026388
231	309178	0.510399	0.021403
231	321317	0.530653	0.019044
231	336033	0.555183	0.02332
231	347743	0.574793	0.0184
231	363382	0.600286	0.024283
231	377028	0.623111	0.021078
231	390673	0.645502	0.021181
231	402900	0.665831	0.019119
231	417195	0.689482	0.022441
231	429903	0.710439	0.019747
231	444185	0.733982	0.022326
231	457773	0.756447	0.020805
231	471335	0.778744	0.021087
231	483891	0.799655	0.019701
231	497551	0.822112	0.020078
231	511964	0.845803	0.022434
231	525067	0.867508	0.019264
231	538576	0.891565	0.022847
231	549971	0.911269	0.018494
231	563842	0.935147	0.022668
231	577026	0.958564	0.022207
231	589807	0.980549	0.020761
231	602491	1.003085	0.021326
231	614506	1.023891	0.019596
231	628415	1.047693	0.022592
231	640360	1.068593	0.01969
231	653961	1.092301	0.022472
231	665499	1.112287	0.018776
231	679831	1.138307	0.02481
231	688883	1.156519	0.015742
231	699545	1.179212	0.020207
231	710371	1.202343	0.021921
231	720680	1.224626	0.021073
231	730661	1.245842	0.020006
231	741166	1.268146	0.021094
231	751220	1.290732	0.021291
231	761090	1.312647	0.020705
231	768433	1.335297	0.02144
231	774945	1.357342	0.020835
231	781818	1.379693	0.02111
231	788453	1.401863	0.02096
231	795067	1.424207	0.021134
231	801678	1.446739	0.021315
231	808084	1.468775	0.020826
231	814655	1.491166	0.021181
231	822017	1.513517	0.02111
231	827925	1.535687	0.02096
231	831309	1.557991	0.021094
231	834693	1.580295	0.021094
231	838077	1.602599	0.021094
231	841461	1.624903	0.021094
231	844845	1.647207	0.021094
231	848229	1.669511	0.021094
231	851613	1.691815	0.021094
231	855145	1.714119	0.021094
231	859239	1.728811	0.013482
232	20379	0.033006	0.030225
232	34235	0.055373	0.021157
232	47754	0.077938	0.021355
232	62421	0.102062	0.022914
232	75184	0.123518	0.020202
232	88930	0.14592	0.021192
232	102083	0.168126	0.020031
232	116068	0.191154	0.021818
232	129135	0.212734	0.01907
232	142841	0.235465	0.021521
232	155811	0.257342	0.020667
232	170290	0.281044	0.022492
232	182998	0.30195	0.019696
232	197315	0.325652	0.022353
232	209236	0.345343	0.018481
232	223550	0.368862	0.021009
232	237869	0.392457	0.022385
232	250053	0.413282	0.019615
232	264610	0.437078	0.022586
232	276747	0.456869	0.018149
232	290931	0.480623	0.022544
232	303588	0.50139	0.019557
232	317119	0.523694	0.021094
232	330864	0.546233	0.021329
232	344574	0.569153	0.02171
232	357862	0.591311	0.020948
232	371289	0.613474	0.020953
232	385008	0.636503	0.021819
232	398731	0.658827	0.021074
232	411499	0.679822	0.019785
232	425526	0.703328	0.022296
232	438439	0.72443	0.019892
232	452352	0.747235	0.021595
232	465351	0.769038	0.020593
232	479332	0.791994	0.021746
232	492411	0.813646	0.020432
232	506252	0.836287	0.021431
232	519516	0.85839	0.020893
232	533462	0.882175	0.022575
232	546951	0.906285	0.0229
232	558245	0.925667	0.017696
232	572302	0.950164	0.023287
232	583608	0.969868	0.018494
232	597754	0.994254	0.023176
232	610718	1.017076	0.021612
232	622184	1.03678	0.018494
232	636299	1.061684	0.023694
232	647753	1.081388	0.018494
232	661287	1.105079	0.022481
232	675340	1.130037	0.023748
232	686300	1.150994	0.018615
232	696704	1.173298	0.021094
232	707048	1.195602	0.021094
232	717537	1.217906	0.021094
232	727951	1.24021	0.021094
232	738536	1.262514	0.021094
232	748498	1.284818	0.021094
232	758554	1.307122	0.021094
232	766656	1.329426	0.021094
232	773316	1.35173	0.021094
232	779915	1.374034	0.021094
232	786841	1.396338	0.021094
232	793388	1.418642	0.021094
232	800002	1.440946	0.021094
232	806505	1.46325	0.021094
232	812983	1.485554	0.021094
232	819669	1.507858	0.021094
232	826758	1.530162	0.021094
232	830522	1.552466	0.021094
232	833906	1.57477	0.021094
232	837290	1.597074	0.021094
232	840674	1.619378	0.021094
232	844058	1.641682	0.021094
232	847442	1.663986	0.021094
232	850826	1.68629	0.021094
232	854243	1.708594	0.021094
232	859170	1.728674	0.01887
233	20630	0.033502	0.00121
233	32054	0.05215	0.00121
233	46054	0.075369	0.002517
233	57228	0.09355	0.00121
233	69556	0.114354	0.00121
233	82332	0.135323	0.00121
233	94337	0.155581	0.00121
233	107727	0.177241	0.00121
233	121000	0.199491	0.001414
233	132764	0.218963	0.00121
233	146287	0.241173	0.00121
233	158768	0.262052	0.00121
233	171456	0.282993	0.00121
233	184349	0.304064	0.001449
233	197227	0.325513	0.00121
233	209083	0.345164	0.001951
233	221222	0.36518	0.00121
233	234584	0.387484	0.00121
233	248166	0.409741	0.00121
233	259924	0.429238	0.00121
233	271492	0.448246	0.001877
233	283189	0.467856	0.001264
233	296562	0.490066	0.003377
233	308951	0.510156	0.00121
233	321599	0.531219	0.00121
233	333443	0.550971	0.00121
233	345710	0.571012	0.001595
233	359508	0.594013	0.004168
233	370805	0.612782	0.00121
233	384134	0.635082	0.00337
233	396689	0.655537	0.002018
233	410050	0.677653	0.004168
233	423266	0.699646	0.00121
233	434460	0.718015	0.00121
233	447245	0.739177	0.001517
233	459712	0.759741	0.00121
233	472480	0.780573	0.00121
233	485275	0.802362	0.003417
233	498011	0.822817	0.002065
233	509768	0.842286	0.001568
233	523282	0.864213	0.00121
233	535311	0.886002	0.003417
233	547078	0.906457	0.001568
233	559796	0.928215	0.00121
233	570264	0.946631	0.00121
233	582026	0.966814	0.001877
233	593437	0.986998	0.00121
233	606682	1.009915	0.002065
233	617666	1.02929	0.002428
233	630064	1.050454	0.00333
233	643386	1.074086	0.002058
233	654301	1.092942	0.00121
233	666480	1.113911	0.00121
233	677529	1.134288	0.00121
233	688036	1.154184	0.00121
233	698414	1.176488	0.00121
233	708801	1.198792	0.00121
233	719177	1.221096	0.00121
233	729590	1.2434	0.00121
233	740177	1.265704	0.00121
233	750134	1.288008	0.00121
233	760080	1.310312	0.00121
233	767757	1.332616	0.00121
233	774366	1.35492	0.00121
233	781097	1.377224	0.00121
233	785131	1.390487	0.00121
233	788964	1.40312	0.00121
233	792505	1.415753	0.00121
233	796310	1.428386	0.00121
233	800050	1.441019	0.00121
233	803764	1.453652	0.00121
233	807406	1.466285	0.00121
233	811160	1.478918	0.00121
233	814854	1.491551	0.00121
233	818627	1.504184	0.00121
233	823277	1.516817	0.00121
233	826582	1.529566	0.001326
234	21062	0.034165	0.00121
234	34934	0.056556	0.00121
234	48139	0.078585	0.00121
234	61606	0.100889	0.00121
234	74988	0.123193	0.00121
234	89354	0.146754	0.00121
234	101851	0.167895	0.00121
234	115395	0.190116	0.00121
234	127039	0.209715	0.00121
234	140627	0.231972	0.00121
234	154694	0.255269	0.00121
234	167512	0.276627	0.00121
234	180952	0.298931	0.00121
234	194610	0.321235	0.00121
234	208181	0.343492	0.00121
234	221544	0.365843	0.00121
234	235085	0.388147	0.00121
234	247530	0.408638	0.00121
234	260362	0.430054	0.00121
234	273893	0.452302	0.001241
234	287363	0.474575	0.00121
234	300752	0.496903	0.001234
234	314269	0.519183	0.00121
234	327785	0.541563	0.00121
234	341937	0.564928	0.00121
234	354630	0.586001	0.00121
234	368156	0.608305	0.00121
234	381572	0.630622	0.001223
234	395155	0.653094	0.00121
234	408531	0.675217	0.00121
234	422052	0.697521	0.00121
234	435501	0.719825	0.00121
234	449785	0.743068	0.001268
234	462816	0.764614	0.00121
234	476094	0.786737	0.00121
234	489676	0.809041	0.00121
234	503142	0.831345	0.00121
234	516804	0.853789	0.001256
234	529923	0.876281	0.00121
234	542593	0.898257	0.00121
234	555334	0.920561	0.00121
234	568174	0.942865	0.00121
234	581315	0.96535	0.00121
234	593776	0.987613	0.001216
234	606623	1.009777	0.00121
234	619471	1.032081	0.00121
234	632188	1.054385	0.00121
234	645270	1.076908	0.001248
234	657965	1.099127	0.00121
234	670660	1.121297	0.00121
234	682482	1.143601	0.00121
234	693413	1.165905	0.00121
234	703893	1.188209	0.00121
234	714269	1.210513	0.00121
234	724606	1.232817	0.00121
234	735234	1.255121	0.00121
234	745160	1.277425	0.00121
234	755330	1.299729	0.00121
234	764598	1.322033	0.00121
234	771246	1.344337	0.00121
234	777825	1.366641	0.00121
234	784737	1.388945	0.00121
234	791303	1.411249	0.00121
234	797852	1.433553	0.00121
234	804341	1.455857	0.00121
234	810848	1.478161	0.00121
234	817597	1.500465	0.00121
234	825149	1.522769	0.00121
234	829401	1.545073	0.00121
234	832785	1.567377	0.00121
234	836169	1.589681	0.00121
234	839553	1.611985	0.00121
234	842937	1.634289	0.00121
234	846321	1.656593	0.00121
234	849705	1.678897	0.00121
234	853088	1.701201	0.00121
234	857376	1.723539	0.001244
235	21064	0.034165	0.00121
235	35637	0.05795	0.00121
235	50582	0.082908	0.00121
235	63896	0.10476	0.00121
235	77917	0.128216	0.00121
235	90212	0.148473	0.00121
235	104486	0.172124	0.00121
235	117304	0.193148	0.001277
235	131412	0.216685	0.00121
235	144408	0.238	0.001464
235	158287	0.26134	0.00121
235	171334	0.282664	0.001224
235	185009	0.304947	0.00121
235	199033	0.328645	0.00121
235	212094	0.349826	0.00121
235	226174	0.372994	0.00121
235	239118	0.394562	0.00121
235	252754	0.417519	0.00121
235	267207	0.44126	0.00121
235	279209	0.460917	0.00121
235	296004	0.488996	0.001691
235	309819	0.511609	0.00121
235	321916	0.531863	0.00121
235	336739	0.556393	0.00121
235	348537	0.576003	0.00121
235	364393	0.602033	0.001747
235	377912	0.624321	0.00121
235	391469	0.646712	0.00121
235	403679	0.667041	0.00121
235	418108	0.690692	0.00121
235	430671	0.711656	0.001217
235	445131	0.735642	0.00166
235	458426	0.757657	0.00121
235	472022	0.779954	0.00121
235	485086	0.802034	0.002379
235	498431	0.823369	0.001257
235	513415	0.848244	0.002441
235	525727	0.868718	0.00121
235	539303	0.892775	0.00121
235	550642	0.912479	0.00121
235	564444	0.936357	0.00121
235	577632	0.959788	0.001224
235	590596	0.981759	0.00121
235	603084	1.004295	0.00121
235	615191	1.025101	0.00121
235	629110	1.048903	0.00121
235	641004	1.069829	0.001236
235	654529	1.093511	0.00121
235	666268	1.113497	0.00121
235	681127	1.140777	0.00247
235	690072	1.159005	0.002486
235	700170	1.180422	0.00121
235	710944	1.203553	0.00121
235	721328	1.225836	0.00121
235	731267	1.247052	0.00121
235	741809	1.269441	0.001295
235	751827	1.291942	0.00121
235	761784	1.313857	0.00121
235	768881	1.336507	0.00121
235	775353	1.358583	0.001241
235	782337	1.380903	0.00121
235	788906	1.403073	0.00121
235	795442	1.425424	0.001217
235	802096	1.447949	0.00121
235	808482	1.469985	0.00121
235	815195	1.492407	0.001241
235	822556	1.514727	0.00121
235	828162	1.536897	0.00121
235	831546	1.559201	0.00121
235	834930	1.581505	0.00121
235	838314	1.603809	0.00121
235	841698	1.626113	0.00121
235	845082	1.648417	0.00121
235	848466	1.670721	0.00121
235	851850	1.693025	0.00121
235	855366	1.715329	0.00121
235	859976	1.730055	0.001244
236	21155	0.034216	0.00121
236	34965	0.056583	0.00121
236	48487	0.079148	0.00121
236	63119	0.103316	0.001254
236	75855	0.124728	0.00121
236	90096	0.148095	0.002175
236	102758	0.169336	0.00121
236	117616	0.193664	0.00251
236	129865	0.213944	0.00121
236	143539	0.236675	0.00121
236	156599	0.258552	0.00121
236	170983	0.282254	0.00121
236	183802	0.303299	0.001349
236	197963	0.326862	0.00121
236	210723	0.347853	0.00251
236	224379	0.370072	0.00121
236	238634	0.393667	0.00121
236	251097	0.414492	0.00121
236	265649	0.43872	0.001642
236	277540	0.458079	0.00121
236	291796	0.481833	0.00121
236	304334	0.5026	0.00121
236	317803	0.524904	0.00121
236	331438	0.547443	0.00121
236	345264	0.570363	0.00121
236	358666	0.592521	0.00121
236	372163	0.614684	0.00121
236	385826	0.637753	0.00125
236	399500	0.660037	0.00121
236	412344	0.681032	0.00121
236	426320	0.704538	0.00121
236	439083	0.72564	0.00121
236	453184	0.748445	0.00121
236	465959	0.770248	0.00121
236	480099	0.793214	0.00122
236	493207	0.814856	0.00121
236	506934	0.837497	0.00121
236	520150	0.8596	0.00121
236	534009	0.883385	0.00121
236	548054	0.907971	0.001686
236	559046	0.926877	0.00121
236	573088	0.951374	0.00121
236	584300	0.971078	0.00121
236	598427	0.995464	0.00121
236	611345	1.018286	0.00121
236	622860	1.03799	0.00121
236	637021	1.062894	0.00121
236	648464	1.082598	0.00121
236	662082	1.106289	0.00121
236	676641	1.132379	0.002342
236	686985	1.152204	0.00121
236	697371	1.174508	0.00121
236	707706	1.196812	0.00121
236	718127	1.219116	0.00121
236	728620	1.24142	0.00121
236	739201	1.263724	0.00121
236	749191	1.286028	0.00121
236	759003	1.308332	0.00121
236	767090	1.330636	0.00121
236	773742	1.35294	0.00121
236	780359	1.375244	0.00121
236	787274	1.397548	0.00121
236	793827	1.419852	0.00121
236	800439	1.442156	0.00121
236	806894	1.46446	0.00121
236	813462	1.486764	0.00121
236	820154	1.509068	0.00121
236	827048	1.531372	0.00121
236	830760	1.553676	0.00121
236	834144	1.57598	0.00121
236	837528	1.598284	0.00121
236	840912	1.620588	0.00121
236	844296	1.642892	0.00121
236	847680	1.665196	0.00121
236	851064	1.6875	0.00121
236	854545	1.709804	0.00121
236	859916	1.729925	0.001251
237	21308	0.034326	0.001371
237	33287	0.053909	0.001438
237	44662	0.073197	0.00121
237	56629	0.092713	0.00121
237	68303	0.112229	0.00121
237	80516	0.132047	0.001418
237	91945	0.151261	0.00121
237	103620	0.170777	0.00121
237	115982	0.19104	0.001957
237	127697	0.210583	0.001984
237	138847	0.229325	0.00121
237	150778	0.248841	0.00121
237	162718	0.268361	0.00121
237	174493	0.287873	0.00121
237	186401	0.307389	0.00121
237	199329	0.329104	0.003409
237	210251	0.347038	0.00121
237	221618	0.365937	0.00121
237	233441	0.385504	0.00121
237	245300	0.404969	0.00121
237	257467	0.425268	0.00121
237	269373	0.444818	0.002027
237	280607	0.463517	0.00121
237	292508	0.483033	0.00121
237	305288	0.504236	0.002897
237	316137	0.522199	0.00121
237	328111	0.541914	0.00121
237	339693	0.561097	0.00121
237	351358	0.580664	0.00121
237	363238	0.600129	0.00121
237	374944	0.619645	0.00121
237	386703	0.639161	0.00121
237	398593	0.658681	0.00121
237	410479	0.67824	0.00121
237	423434	0.699896	0.002053
237	434029	0.717272	0.00121
237	445764	0.736741	0.00121
237	457554	0.756257	0.00121
237	470918	0.778169	0.003606
237	481203	0.795289	0.00121
237	494279	0.816918	0.002536
237	505381	0.834803	0.00121
237	516840	0.853837	0.00121
237	528840	0.87426	0.00207
237	539891	0.893709	0.00121
237	551162	0.913139	0.001964
237	562063	0.931995	0.00121
237	574491	0.953966	0.003708
237	584174	0.970937	0.00121
237	595363	0.990547	0.00121
237	606735	1.009965	0.00121
237	618447	1.030361	0.00209
237	629828	1.049991	0.00211
237	640313	1.06856	0.00121
237	651472	1.088083	0.001264
237	662903	1.107695	0.00121
237	674613	1.128717	0.002866
237	684138	1.146624	0.00121
237	693498	1.166093	0.00121
237	702670	1.185609	0.00121
237	712160	1.206233	0.002318
237	720713	1.224641	0.00121
237	731524	1.247484	0.004537
237	740460	1.266461	0.00121
237	749130	1.285977	0.00121
237	757963	1.305493	0.00121
237	765458	1.325009	0.00121
237	771307	1.344525	0.00121
237	777044	1.364041	0.00121
237	783163	1.383557	0.00121
237	788902	1.403073	0.00121
237	794655	1.422589	0.00121
237	800379	1.442105	0.00121
237	806129	1.461621	0.00121
237	811825	1.481137	0.00121
237	817651	1.500653	0.00121
237	823797	1.517757	0.00121
238	21803	0.03508	0.032652
238	33755	0.054596	0.01864
238	47030	0.076755	0.021283
238	58841	0.096369	0.018738
238	71627	0.117385	0.02014
238	83218	0.136901	0.01864
238	95741	0.157752	0.019975
238	109214	0.179962	0.021334
238	122741	0.202247	0.021409
238	134567	0.221829	0.018706
238	147895	0.244133	0.021428
238	160693	0.265149	0.02014
238	173293	0.285953	0.019928
238	186653	0.307763	0.020934
238	198489	0.327773	0.019134
238	211423	0.348836	0.020187
238	224041	0.369593	0.019881
238	237115	0.391226	0.020757
238	248391	0.410125	0.018023
238	260795	0.430882	0.019881
238	273705	0.451992	0.020234
238	286239	0.472796	0.019928
238	298978	0.493765	0.020093
238	310992	0.513281	0.01864
238	323032	0.533504	0.019347
238	335030	0.553554	0.019174
238	348451	0.575905	0.021475
238	362020	0.598068	0.021287
238	373853	0.617725	0.018781
238	387321	0.639982	0.021381
238	399239	0.659545	0.018687
238	412796	0.682235	0.021814
238	423607	0.700077	0.016966
238	436186	0.720834	0.019881
238	449013	0.741948	0.020238
238	461463	0.762701	0.019877
238	475026	0.784958	0.021381
238	488507	0.807262	0.021428
238	501025	0.827878	0.01974
238	512252	0.846341	0.017587
238	525656	0.868598	0.021381
238	537443	0.889661	0.020187
238	548788	0.909177	0.01864
238	560570	0.929531	0.019478
238	571970	0.94945	0.019043
238	583953	0.970513	0.020187
238	595898	0.991317	0.019928
238	608712	1.01352	0.021327
238	620219	1.033137	0.018741
238	632774	1.055347	0.021334
238	644017	1.074957	0.018734
238	656407	1.096703	0.02087
238	667350	1.115489	0.01791
238	678820	1.13634	0.019975
238	689901	1.158597	0.021381
238	700350	1.180854	0.021381
238	710810	1.203158	0.021428
238	721183	1.225462	0.021428
238	731666	1.247766	0.021428
238	742013	1.27007	0.021428
238	751992	1.292374	0.021428
238	762216	1.314678	0.021428
238	768967	1.336982	0.021428
238	775521	1.359286	0.021428
238	782041	1.380349	0.020187
238	785808	1.392662	0.011423
238	789391	1.404961	0.011423
238	793120	1.417331	0.011494
238	796769	1.429964	0.011757
238	800561	1.442597	0.011757
238	804132	1.45523	0.011757
238	807871	1.467863	0.011757
238	811601	1.480496	0.011757
238	815297	1.493129	0.011757
238	819062	1.505762	0.011757
238	824006	1.518395	0.011757
238	826964	1.53131	0.012039
239	22464	0.035956	0.000876
239	34367	0.055472	0.000876
239	47573	0.077631	0.000876
239	59360	0.097245	0.000876
239	72228	0.118261	0.000876
239	83884	0.137777	0.000876
239	96315	0.158628	0.000876
239	109809	0.180838	0.000876
239	123384	0.203123	0.000876
239	135132	0.222705	0.000876
239	148477	0.245009	0.000876
239	161310	0.266025	0.000876
239	173976	0.286829	0.000876
239	187097	0.308639	0.000876
239	199056	0.328649	0.000876
239	212041	0.349712	0.000876
239	224739	0.370469	0.000876
239	237637	0.392102	0.000876
239	248947	0.411001	0.000876
239	261469	0.431758	0.000876
239	274371	0.452868	0.000876
239	286860	0.473672	0.000876
239	299445	0.494641	0.000876
239	311477	0.514157	0.000876
239	323496	0.53438	0.000876
239	335598	0.55443	0.000876
239	349136	0.576781	0.000876
239	362593	0.598944	0.000876
239	374410	0.618601	0.000876
239	387815	0.640858	0.000876
239	399884	0.660421	0.000876
239	413238	0.683111	0.000876
239	424203	0.700953	0.000876
239	436888	0.72171	0.000876
239	449629	0.742824	0.000876
239	462230	0.763577	0.000876
239	475616	0.785834	0.000876
239	489127	0.808138	0.000876
239	501415	0.828754	0.000876
239	512782	0.847217	0.000876
239	526054	0.869474	0.000876
239	537988	0.890537	0.000876
239	549323	0.910053	0.000876
239	561056	0.930407	0.000876
239	572499	0.950326	0.000876
239	584498	0.971389	0.000876
239	596460	0.992193	0.000876
239	609243	1.014396	0.000876
239	620763	1.034013	0.000876
239	633220	1.056223	0.000876
239	644756	1.075833	0.000876
239	657008	1.097579	0.000876
239	667887	1.116365	0.000876
239	679296	1.137216	0.000876
239	690388	1.159473	0.000876
239	700752	1.18173	0.000876
239	711200	1.204034	0.000876
239	721666	1.226338	0.000876
239	732033	1.248642	0.000876
239	742368	1.270946	0.000876
239	752421	1.29325	0.000876
239	762579	1.315554	0.000876
239	769255	1.337858	0.000876
239	775848	1.360162	0.000876
239	782470	1.381239	0.00089
239	786047	1.393538	0.000876
239	789621	1.405837	0.000876
239	793241	1.418207	0.000876
239	797016	1.43084	0.000876
239	800683	1.443473	0.000876
239	804446	1.456106	0.000876
239	808038	1.468739	0.000876
239	811983	1.481372	0.000876
239	815562	1.494005	0.000876
239	819410	1.506638	0.000876
239	824374	1.519271	0.000876
239	827249	1.532186	0.000876

