file 471242 1651099976                                          
version 2
run General-0-20220427-22:52:38-22578
attr configname General
attr datetime 20220427-22:52:38
attr experiment General
attr inifile VL2_8_4_2__jv_k_4_seed0.ini
attr iterationvars ""
attr iterationvarsf ""
attr measurement ""
attr network VL2_8_4_2__jv_k_4_seed0
attr processid 22578
attr repetition 0
attr replication #0
attr resultdir results
attr runnumber 0
attr seedset 0
param **.ppp[*].ppp.queue.typename "\"DropTailQueue\""
param **.ppp[*].ppp.queue.packetCapacity 100
param *.configurator.config "xmldoc(\"VL2_8_4_2__jv_k_4_seed0.xml\")"
param **.sink_000.numApps 1
param **.sink_000.app[0].typename "\"TcpGenericServerApp\""
param **.sink_000.app[0].localAddress "\"\""
param **.sink_000.app[0].localPort 1100
param **.sink_000.app[0].replyDelay 0s
param **.sink_001.numApps 1
param **.sink_001.app[0].typename "\"TcpGenericServerApp\""
param **.sink_001.app[0].localAddress "\"\""
param **.sink_001.app[0].localPort 1100
param **.sink_001.app[0].replyDelay 0s
param **.sink_002.numApps 1
param **.sink_002.app[0].typename "\"TcpGenericServerApp\""
param **.sink_002.app[0].localAddress "\"\""
param **.sink_002.app[0].localPort 1100
param **.sink_002.app[0].replyDelay 0s
param **.sink_003.numApps 1
param **.sink_003.app[0].typename "\"TcpGenericServerApp\""
param **.sink_003.app[0].localAddress "\"\""
param **.sink_003.app[0].localPort 1100
param **.sink_003.app[0].replyDelay 0s
param **.sink_004.numApps 1
param **.sink_004.app[0].typename "\"TcpGenericServerApp\""
param **.sink_004.app[0].localAddress "\"\""
param **.sink_004.app[0].localPort 1100
param **.sink_004.app[0].replyDelay 0s
param **.sink_005.numApps 1
param **.sink_005.app[0].typename "\"TcpGenericServerApp\""
param **.sink_005.app[0].localAddress "\"\""
param **.sink_005.app[0].localPort 1100
param **.sink_005.app[0].replyDelay 0s
param **.sink_006.numApps 1
param **.sink_006.app[0].typename "\"TcpGenericServerApp\""
param **.sink_006.app[0].localAddress "\"\""
param **.sink_006.app[0].localPort 1100
param **.sink_006.app[0].replyDelay 0s
param **.sink_007.numApps 1
param **.sink_007.app[0].typename "\"TcpGenericServerApp\""
param **.sink_007.app[0].localAddress "\"\""
param **.sink_007.app[0].localPort 1100
param **.sink_007.app[0].replyDelay 0s
param **.sink_008.numApps 1
param **.sink_008.app[0].typename "\"TcpGenericServerApp\""
param **.sink_008.app[0].localAddress "\"\""
param **.sink_008.app[0].localPort 1100
param **.sink_008.app[0].replyDelay 0s
param **.sink_009.numApps 1
param **.sink_009.app[0].typename "\"TcpGenericServerApp\""
param **.sink_009.app[0].localAddress "\"\""
param **.sink_009.app[0].localPort 1100
param **.sink_009.app[0].replyDelay 0s
param **.sink_010.numApps 1
param **.sink_010.app[0].typename "\"TcpGenericServerApp\""
param **.sink_010.app[0].localAddress "\"\""
param **.sink_010.app[0].localPort 1100
param **.sink_010.app[0].replyDelay 0s
param **.sink_011.numApps 1
param **.sink_011.app[0].typename "\"TcpGenericServerApp\""
param **.sink_011.app[0].localAddress "\"\""
param **.sink_011.app[0].localPort 1100
param **.sink_011.app[0].replyDelay 0s
param **.sink_012.numApps 1
param **.sink_012.app[0].typename "\"TcpGenericServerApp\""
param **.sink_012.app[0].localAddress "\"\""
param **.sink_012.app[0].localPort 1100
param **.sink_012.app[0].replyDelay 0s
param **.sink_013.numApps 1
param **.sink_013.app[0].typename "\"TcpGenericServerApp\""
param **.sink_013.app[0].localAddress "\"\""
param **.sink_013.app[0].localPort 1100
param **.sink_013.app[0].replyDelay 0s
param **.sink_014.numApps 1
param **.sink_014.app[0].typename "\"TcpGenericServerApp\""
param **.sink_014.app[0].localAddress "\"\""
param **.sink_014.app[0].localPort 1100
param **.sink_014.app[0].replyDelay 0s
param **.sink_015.numApps 1
param **.sink_015.app[0].typename "\"TcpGenericServerApp\""
param **.sink_015.app[0].localAddress "\"\""
param **.sink_015.app[0].localPort 1100
param **.sink_015.app[0].replyDelay 0s
param **.sink_016.numApps 1
param **.sink_016.app[0].typename "\"TcpGenericServerApp\""
param **.sink_016.app[0].localAddress "\"\""
param **.sink_016.app[0].localPort 1100
param **.sink_016.app[0].replyDelay 0s
param **.sink_017.numApps 1
param **.sink_017.app[0].typename "\"TcpGenericServerApp\""
param **.sink_017.app[0].localAddress "\"\""
param **.sink_017.app[0].localPort 1100
param **.sink_017.app[0].replyDelay 0s
param **.sink_018.numApps 1
param **.sink_018.app[0].typename "\"TcpGenericServerApp\""
param **.sink_018.app[0].localAddress "\"\""
param **.sink_018.app[0].localPort 1100
param **.sink_018.app[0].replyDelay 0s
param **.sink_019.numApps 1
param **.sink_019.app[0].typename "\"TcpGenericServerApp\""
param **.sink_019.app[0].localAddress "\"\""
param **.sink_019.app[0].localPort 1100
param **.sink_019.app[0].replyDelay 0s
param **.sink_020.numApps 1
param **.sink_020.app[0].typename "\"TcpGenericServerApp\""
param **.sink_020.app[0].localAddress "\"\""
param **.sink_020.app[0].localPort 1100
param **.sink_020.app[0].replyDelay 0s
param **.sink_021.numApps 1
param **.sink_021.app[0].typename "\"TcpGenericServerApp\""
param **.sink_021.app[0].localAddress "\"\""
param **.sink_021.app[0].localPort 1100
param **.sink_021.app[0].replyDelay 0s
param **.sink_022.numApps 1
param **.sink_022.app[0].typename "\"TcpGenericServerApp\""
param **.sink_022.app[0].localAddress "\"\""
param **.sink_022.app[0].localPort 1100
param **.sink_022.app[0].replyDelay 0s
param **.sink_023.numApps 1
param **.sink_023.app[0].typename "\"TcpGenericServerApp\""
param **.sink_023.app[0].localAddress "\"\""
param **.sink_023.app[0].localPort 1100
param **.sink_023.app[0].replyDelay 0s
param **.sink_024.numApps 1
param **.sink_024.app[0].typename "\"TcpGenericServerApp\""
param **.sink_024.app[0].localAddress "\"\""
param **.sink_024.app[0].localPort 1100
param **.sink_024.app[0].replyDelay 0s
param **.sink_025.numApps 1
param **.sink_025.app[0].typename "\"TcpGenericServerApp\""
param **.sink_025.app[0].localAddress "\"\""
param **.sink_025.app[0].localPort 1100
param **.sink_025.app[0].replyDelay 0s
param **.sink_026.numApps 1
param **.sink_026.app[0].typename "\"TcpGenericServerApp\""
param **.sink_026.app[0].localAddress "\"\""
param **.sink_026.app[0].localPort 1100
param **.sink_026.app[0].replyDelay 0s
param **.sink_027.numApps 1
param **.sink_027.app[0].typename "\"TcpGenericServerApp\""
param **.sink_027.app[0].localAddress "\"\""
param **.sink_027.app[0].localPort 1100
param **.sink_027.app[0].replyDelay 0s
param **.sink_028.numApps 1
param **.sink_028.app[0].typename "\"TcpGenericServerApp\""
param **.sink_028.app[0].localAddress "\"\""
param **.sink_028.app[0].localPort 1100
param **.sink_028.app[0].replyDelay 0s
param **.sink_029.numApps 1
param **.sink_029.app[0].typename "\"TcpGenericServerApp\""
param **.sink_029.app[0].localAddress "\"\""
param **.sink_029.app[0].localPort 1100
param **.sink_029.app[0].replyDelay 0s
param **.sink_030.numApps 1
param **.sink_030.app[0].typename "\"TcpGenericServerApp\""
param **.sink_030.app[0].localAddress "\"\""
param **.sink_030.app[0].localPort 1100
param **.sink_030.app[0].replyDelay 0s
param **.sink_031.numApps 1
param **.sink_031.app[0].typename "\"TcpGenericServerApp\""
param **.sink_031.app[0].localAddress "\"\""
param **.sink_031.app[0].localPort 1100
param **.sink_031.app[0].replyDelay 0s
param **.sink_032.numApps 1
param **.sink_032.app[0].typename "\"TcpGenericServerApp\""
param **.sink_032.app[0].localAddress "\"\""
param **.sink_032.app[0].localPort 1100
param **.sink_032.app[0].replyDelay 0s
param **.sink_033.numApps 1
param **.sink_033.app[0].typename "\"TcpGenericServerApp\""
param **.sink_033.app[0].localAddress "\"\""
param **.sink_033.app[0].localPort 1100
param **.sink_033.app[0].replyDelay 0s
param **.sink_034.numApps 1
param **.sink_034.app[0].typename "\"TcpGenericServerApp\""
param **.sink_034.app[0].localAddress "\"\""
param **.sink_034.app[0].localPort 1100
param **.sink_034.app[0].replyDelay 0s
param **.sink_035.numApps 1
param **.sink_035.app[0].typename "\"TcpGenericServerApp\""
param **.sink_035.app[0].localAddress "\"\""
param **.sink_035.app[0].localPort 1100
param **.sink_035.app[0].replyDelay 0s
param **.sink_036.numApps 1
param **.sink_036.app[0].typename "\"TcpGenericServerApp\""
param **.sink_036.app[0].localAddress "\"\""
param **.sink_036.app[0].localPort 1100
param **.sink_036.app[0].replyDelay 0s
param **.sink_037.numApps 1
param **.sink_037.app[0].typename "\"TcpGenericServerApp\""
param **.sink_037.app[0].localAddress "\"\""
param **.sink_037.app[0].localPort 1100
param **.sink_037.app[0].replyDelay 0s
param **.sink_038.numApps 1
param **.sink_038.app[0].typename "\"TcpGenericServerApp\""
param **.sink_038.app[0].localAddress "\"\""
param **.sink_038.app[0].localPort 1100
param **.sink_038.app[0].replyDelay 0s
param **.sink_039.numApps 1
param **.sink_039.app[0].typename "\"TcpGenericServerApp\""
param **.sink_039.app[0].localAddress "\"\""
param **.sink_039.app[0].localPort 1100
param **.sink_039.app[0].replyDelay 0s
param **.sink_040.numApps 1
param **.sink_040.app[0].typename "\"TcpGenericServerApp\""
param **.sink_040.app[0].localAddress "\"\""
param **.sink_040.app[0].localPort 1100
param **.sink_040.app[0].replyDelay 0s
param **.sink_041.numApps 1
param **.sink_041.app[0].typename "\"TcpGenericServerApp\""
param **.sink_041.app[0].localAddress "\"\""
param **.sink_041.app[0].localPort 1100
param **.sink_041.app[0].replyDelay 0s
param **.sink_042.numApps 1
param **.sink_042.app[0].typename "\"TcpGenericServerApp\""
param **.sink_042.app[0].localAddress "\"\""
param **.sink_042.app[0].localPort 1100
param **.sink_042.app[0].replyDelay 0s
param **.sink_043.numApps 1
param **.sink_043.app[0].typename "\"TcpGenericServerApp\""
param **.sink_043.app[0].localAddress "\"\""
param **.sink_043.app[0].localPort 1100
param **.sink_043.app[0].replyDelay 0s
param **.sink_044.numApps 1
param **.sink_044.app[0].typename "\"TcpGenericServerApp\""
param **.sink_044.app[0].localAddress "\"\""
param **.sink_044.app[0].localPort 1100
param **.sink_044.app[0].replyDelay 0s
param **.sink_045.numApps 1
param **.sink_045.app[0].typename "\"TcpGenericServerApp\""
param **.sink_045.app[0].localAddress "\"\""
param **.sink_045.app[0].localPort 1100
param **.sink_045.app[0].replyDelay 0s
param **.sink_046.numApps 1
param **.sink_046.app[0].typename "\"TcpGenericServerApp\""
param **.sink_046.app[0].localAddress "\"\""
param **.sink_046.app[0].localPort 1100
param **.sink_046.app[0].replyDelay 0s
param **.sink_047.numApps 1
param **.sink_047.app[0].typename "\"TcpGenericServerApp\""
param **.sink_047.app[0].localAddress "\"\""
param **.sink_047.app[0].localPort 1100
param **.sink_047.app[0].replyDelay 0s
param **.sink_048.numApps 1
param **.sink_048.app[0].typename "\"TcpGenericServerApp\""
param **.sink_048.app[0].localAddress "\"\""
param **.sink_048.app[0].localPort 1100
param **.sink_048.app[0].replyDelay 0s
param **.sink_049.numApps 1
param **.sink_049.app[0].typename "\"TcpGenericServerApp\""
param **.sink_049.app[0].localAddress "\"\""
param **.sink_049.app[0].localPort 1100
param **.sink_049.app[0].replyDelay 0s
param **.sink_050.numApps 1
param **.sink_050.app[0].typename "\"TcpGenericServerApp\""
param **.sink_050.app[0].localAddress "\"\""
param **.sink_050.app[0].localPort 1100
param **.sink_050.app[0].replyDelay 0s
param **.sink_051.numApps 1
param **.sink_051.app[0].typename "\"TcpGenericServerApp\""
param **.sink_051.app[0].localAddress "\"\""
param **.sink_051.app[0].localPort 1100
param **.sink_051.app[0].replyDelay 0s
param **.sink_052.numApps 1
param **.sink_052.app[0].typename "\"TcpGenericServerApp\""
param **.sink_052.app[0].localAddress "\"\""
param **.sink_052.app[0].localPort 1100
param **.sink_052.app[0].replyDelay 0s
param **.sink_053.numApps 1
param **.sink_053.app[0].typename "\"TcpGenericServerApp\""
param **.sink_053.app[0].localAddress "\"\""
param **.sink_053.app[0].localPort 1100
param **.sink_053.app[0].replyDelay 0s
param **.sink_054.numApps 1
param **.sink_054.app[0].typename "\"TcpGenericServerApp\""
param **.sink_054.app[0].localAddress "\"\""
param **.sink_054.app[0].localPort 1100
param **.sink_054.app[0].replyDelay 0s
param **.sink_055.numApps 1
param **.sink_055.app[0].typename "\"TcpGenericServerApp\""
param **.sink_055.app[0].localAddress "\"\""
param **.sink_055.app[0].localPort 1100
param **.sink_055.app[0].replyDelay 0s
param **.sink_056.numApps 1
param **.sink_056.app[0].typename "\"TcpGenericServerApp\""
param **.sink_056.app[0].localAddress "\"\""
param **.sink_056.app[0].localPort 1100
param **.sink_056.app[0].replyDelay 0s
param **.sink_057.numApps 1
param **.sink_057.app[0].typename "\"TcpGenericServerApp\""
param **.sink_057.app[0].localAddress "\"\""
param **.sink_057.app[0].localPort 1100
param **.sink_057.app[0].replyDelay 0s
param **.sink_058.numApps 1
param **.sink_058.app[0].typename "\"TcpGenericServerApp\""
param **.sink_058.app[0].localAddress "\"\""
param **.sink_058.app[0].localPort 1100
param **.sink_058.app[0].replyDelay 0s
param **.sink_059.numApps 1
param **.sink_059.app[0].typename "\"TcpGenericServerApp\""
param **.sink_059.app[0].localAddress "\"\""
param **.sink_059.app[0].localPort 1100
param **.sink_059.app[0].replyDelay 0s
param **.sink_060.numApps 1
param **.sink_060.app[0].typename "\"TcpGenericServerApp\""
param **.sink_060.app[0].localAddress "\"\""
param **.sink_060.app[0].localPort 1100
param **.sink_060.app[0].replyDelay 0s
param **.sink_061.numApps 1
param **.sink_061.app[0].typename "\"TcpGenericServerApp\""
param **.sink_061.app[0].localAddress "\"\""
param **.sink_061.app[0].localPort 1100
param **.sink_061.app[0].replyDelay 0s
param **.sink_062.numApps 1
param **.sink_062.app[0].typename "\"TcpGenericServerApp\""
param **.sink_062.app[0].localAddress "\"\""
param **.sink_062.app[0].localPort 1100
param **.sink_062.app[0].replyDelay 0s
param **.sink_063.numApps 1
param **.sink_063.app[0].typename "\"TcpGenericServerApp\""
param **.sink_063.app[0].localAddress "\"\""
param **.sink_063.app[0].localPort 1100
param **.sink_063.app[0].replyDelay 0s
param **.sink_064.numApps 1
param **.sink_064.app[0].typename "\"TcpGenericServerApp\""
param **.sink_064.app[0].localAddress "\"\""
param **.sink_064.app[0].localPort 1100
param **.sink_064.app[0].replyDelay 0s
param **.sink_065.numApps 1
param **.sink_065.app[0].typename "\"TcpGenericServerApp\""
param **.sink_065.app[0].localAddress "\"\""
param **.sink_065.app[0].localPort 1100
param **.sink_065.app[0].replyDelay 0s
param **.sink_066.numApps 1
param **.sink_066.app[0].typename "\"TcpGenericServerApp\""
param **.sink_066.app[0].localAddress "\"\""
param **.sink_066.app[0].localPort 1100
param **.sink_066.app[0].replyDelay 0s
param **.sink_067.numApps 1
param **.sink_067.app[0].typename "\"TcpGenericServerApp\""
param **.sink_067.app[0].localAddress "\"\""
param **.sink_067.app[0].localPort 1100
param **.sink_067.app[0].replyDelay 0s
param **.sink_068.numApps 1
param **.sink_068.app[0].typename "\"TcpGenericServerApp\""
param **.sink_068.app[0].localAddress "\"\""
param **.sink_068.app[0].localPort 1100
param **.sink_068.app[0].replyDelay 0s
param **.sink_069.numApps 1
param **.sink_069.app[0].typename "\"TcpGenericServerApp\""
param **.sink_069.app[0].localAddress "\"\""
param **.sink_069.app[0].localPort 1100
param **.sink_069.app[0].replyDelay 0s
param **.sink_070.numApps 1
param **.sink_070.app[0].typename "\"TcpGenericServerApp\""
param **.sink_070.app[0].localAddress "\"\""
param **.sink_070.app[0].localPort 1100
param **.sink_070.app[0].replyDelay 0s
param **.sink_071.numApps 1
param **.sink_071.app[0].typename "\"TcpGenericServerApp\""
param **.sink_071.app[0].localAddress "\"\""
param **.sink_071.app[0].localPort 1100
param **.sink_071.app[0].replyDelay 0s
param **.sink_072.numApps 1
param **.sink_072.app[0].typename "\"TcpGenericServerApp\""
param **.sink_072.app[0].localAddress "\"\""
param **.sink_072.app[0].localPort 1100
param **.sink_072.app[0].replyDelay 0s
param **.sink_073.numApps 1
param **.sink_073.app[0].typename "\"TcpGenericServerApp\""
param **.sink_073.app[0].localAddress "\"\""
param **.sink_073.app[0].localPort 1100
param **.sink_073.app[0].replyDelay 0s
param **.sink_074.numApps 1
param **.sink_074.app[0].typename "\"TcpGenericServerApp\""
param **.sink_074.app[0].localAddress "\"\""
param **.sink_074.app[0].localPort 1100
param **.sink_074.app[0].replyDelay 0s
param **.sink_075.numApps 1
param **.sink_075.app[0].typename "\"TcpGenericServerApp\""
param **.sink_075.app[0].localAddress "\"\""
param **.sink_075.app[0].localPort 1100
param **.sink_075.app[0].replyDelay 0s
param **.sink_076.numApps 1
param **.sink_076.app[0].typename "\"TcpGenericServerApp\""
param **.sink_076.app[0].localAddress "\"\""
param **.sink_076.app[0].localPort 1100
param **.sink_076.app[0].replyDelay 0s
param **.sink_077.numApps 1
param **.sink_077.app[0].typename "\"TcpGenericServerApp\""
param **.sink_077.app[0].localAddress "\"\""
param **.sink_077.app[0].localPort 1100
param **.sink_077.app[0].replyDelay 0s
param **.sink_078.numApps 1
param **.sink_078.app[0].typename "\"TcpGenericServerApp\""
param **.sink_078.app[0].localAddress "\"\""
param **.sink_078.app[0].localPort 1100
param **.sink_078.app[0].replyDelay 0s
param **.sink_079.numApps 1
param **.sink_079.app[0].typename "\"TcpGenericServerApp\""
param **.sink_079.app[0].localAddress "\"\""
param **.sink_079.app[0].localPort 1100
param **.sink_079.app[0].replyDelay 0s
param **.sink_080.numApps 1
param **.sink_080.app[0].typename "\"TcpGenericServerApp\""
param **.sink_080.app[0].localAddress "\"\""
param **.sink_080.app[0].localPort 1100
param **.sink_080.app[0].replyDelay 0s
param **.sink_081.numApps 1
param **.sink_081.app[0].typename "\"TcpGenericServerApp\""
param **.sink_081.app[0].localAddress "\"\""
param **.sink_081.app[0].localPort 1100
param **.sink_081.app[0].replyDelay 0s
param **.sink_082.numApps 1
param **.sink_082.app[0].typename "\"TcpGenericServerApp\""
param **.sink_082.app[0].localAddress "\"\""
param **.sink_082.app[0].localPort 1100
param **.sink_082.app[0].replyDelay 0s
param **.sink_083.numApps 1
param **.sink_083.app[0].typename "\"TcpGenericServerApp\""
param **.sink_083.app[0].localAddress "\"\""
param **.sink_083.app[0].localPort 1100
param **.sink_083.app[0].replyDelay 0s
param **.sink_084.numApps 1
param **.sink_084.app[0].typename "\"TcpGenericServerApp\""
param **.sink_084.app[0].localAddress "\"\""
param **.sink_084.app[0].localPort 1100
param **.sink_084.app[0].replyDelay 0s
param **.sink_085.numApps 1
param **.sink_085.app[0].typename "\"TcpGenericServerApp\""
param **.sink_085.app[0].localAddress "\"\""
param **.sink_085.app[0].localPort 1100
param **.sink_085.app[0].replyDelay 0s
param **.sink_086.numApps 1
param **.sink_086.app[0].typename "\"TcpGenericServerApp\""
param **.sink_086.app[0].localAddress "\"\""
param **.sink_086.app[0].localPort 1100
param **.sink_086.app[0].replyDelay 0s
param **.sink_087.numApps 1
param **.sink_087.app[0].typename "\"TcpGenericServerApp\""
param **.sink_087.app[0].localAddress "\"\""
param **.sink_087.app[0].localPort 1100
param **.sink_087.app[0].replyDelay 0s
param **.source_000.numApps 1
param **.source_000.app[0].typename "\"TcpBasicClientApp\""
param **.source_000.app[0].localAddress "\"\""
param **.source_000.app[0].connectAddress "\"sink_000\""
param **.source_000.app[0].connectPort 1100
param **.source_000.app[0].startTime 0s
param **.source_000.app[0].idleInterval 1000s
param **.source_000.app[0].requestLength 1300B
param **.source_000.app[0].replyLength 20B
param **.source_000.app[0].thinkTime 0s
param **.source_000.app[0].numRequestsPerSession 447
param **.source_001.numApps 1
param **.source_001.app[0].typename "\"TcpBasicClientApp\""
param **.source_001.app[0].localAddress "\"\""
param **.source_001.app[0].connectAddress "\"sink_001\""
param **.source_001.app[0].connectPort 1100
param **.source_001.app[0].startTime 0s
param **.source_001.app[0].idleInterval 1000s
param **.source_001.app[0].requestLength 1300B
param **.source_001.app[0].replyLength 20B
param **.source_001.app[0].thinkTime 0s
param **.source_001.app[0].numRequestsPerSession 20
param **.source_002.numApps 1
param **.source_002.app[0].typename "\"TcpBasicClientApp\""
param **.source_002.app[0].localAddress "\"\""
param **.source_002.app[0].connectAddress "\"sink_002\""
param **.source_002.app[0].connectPort 1100
param **.source_002.app[0].startTime 0s
param **.source_002.app[0].idleInterval 1000s
param **.source_002.app[0].requestLength 1300B
param **.source_002.app[0].replyLength 20B
param **.source_002.app[0].thinkTime 0s
param **.source_002.app[0].numRequestsPerSession 74
param **.source_003.numApps 1
param **.source_003.app[0].typename "\"TcpBasicClientApp\""
param **.source_003.app[0].localAddress "\"\""
param **.source_003.app[0].connectAddress "\"sink_003\""
param **.source_003.app[0].connectPort 1100
param **.source_003.app[0].startTime 0s
param **.source_003.app[0].idleInterval 1000s
param **.source_003.app[0].requestLength 1300B
param **.source_003.app[0].replyLength 20B
param **.source_003.app[0].thinkTime 0s
param **.source_003.app[0].numRequestsPerSession 230
param **.source_004.numApps 1
param **.source_004.app[0].typename "\"TcpBasicClientApp\""
param **.source_004.app[0].localAddress "\"\""
param **.source_004.app[0].connectAddress "\"sink_004\""
param **.source_004.app[0].connectPort 1100
param **.source_004.app[0].startTime 0s
param **.source_004.app[0].idleInterval 1000s
param **.source_004.app[0].requestLength 1300B
param **.source_004.app[0].replyLength 20B
param **.source_004.app[0].thinkTime 0s
param **.source_004.app[0].numRequestsPerSession 568
param **.source_005.numApps 1
param **.source_005.app[0].typename "\"TcpBasicClientApp\""
param **.source_005.app[0].localAddress "\"\""
param **.source_005.app[0].connectAddress "\"sink_005\""
param **.source_005.app[0].connectPort 1100
param **.source_005.app[0].startTime 0s
param **.source_005.app[0].idleInterval 1000s
param **.source_005.app[0].requestLength 1300B
param **.source_005.app[0].replyLength 20B
param **.source_005.app[0].thinkTime 0s
param **.source_005.app[0].numRequestsPerSession 1
param **.source_006.numApps 1
param **.source_006.app[0].typename "\"TcpBasicClientApp\""
param **.source_006.app[0].localAddress "\"\""
param **.source_006.app[0].connectAddress "\"sink_006\""
param **.source_006.app[0].connectPort 1100
param **.source_006.app[0].startTime 0s
param **.source_006.app[0].idleInterval 1000s
param **.source_006.app[0].requestLength 1300B
param **.source_006.app[0].replyLength 20B
param **.source_006.app[0].thinkTime 0s
param **.source_006.app[0].numRequestsPerSession 69
param **.source_007.numApps 1
param **.source_007.app[0].typename "\"TcpBasicClientApp\""
param **.source_007.app[0].localAddress "\"\""
param **.source_007.app[0].connectAddress "\"sink_007\""
param **.source_007.app[0].connectPort 1100
param **.source_007.app[0].startTime 0s
param **.source_007.app[0].idleInterval 1000s
param **.source_007.app[0].requestLength 1300B
param **.source_007.app[0].replyLength 20B
param **.source_007.app[0].thinkTime 0s
param **.source_007.app[0].numRequestsPerSession 6
param **.source_008.numApps 1
param **.source_008.app[0].typename "\"TcpBasicClientApp\""
param **.source_008.app[0].localAddress "\"\""
param **.source_008.app[0].connectAddress "\"sink_008\""
param **.source_008.app[0].connectPort 1100
param **.source_008.app[0].startTime 0s
param **.source_008.app[0].idleInterval 1000s
param **.source_008.app[0].requestLength 1300B
param **.source_008.app[0].replyLength 20B
param **.source_008.app[0].thinkTime 0s
param **.source_008.app[0].numRequestsPerSession 7
param **.source_009.numApps 1
param **.source_009.app[0].typename "\"TcpBasicClientApp\""
param **.source_009.app[0].localAddress "\"\""
param **.source_009.app[0].connectAddress "\"sink_009\""
param **.source_009.app[0].connectPort 1100
param **.source_009.app[0].startTime 0s
param **.source_009.app[0].idleInterval 1000s
param **.source_009.app[0].requestLength 1300B
param **.source_009.app[0].replyLength 20B
param **.source_009.app[0].thinkTime 0s
param **.source_009.app[0].numRequestsPerSession 20
param **.source_010.numApps 1
param **.source_010.app[0].typename "\"TcpBasicClientApp\""
param **.source_010.app[0].localAddress "\"\""
param **.source_010.app[0].connectAddress "\"sink_010\""
param **.source_010.app[0].connectPort 1100
param **.source_010.app[0].startTime 0s
param **.source_010.app[0].idleInterval 1000s
param **.source_010.app[0].requestLength 1300B
param **.source_010.app[0].replyLength 20B
param **.source_010.app[0].thinkTime 0s
param **.source_010.app[0].numRequestsPerSession 11
param **.source_011.numApps 1
param **.source_011.app[0].typename "\"TcpBasicClientApp\""
param **.source_011.app[0].localAddress "\"\""
param **.source_011.app[0].connectAddress "\"sink_011\""
param **.source_011.app[0].connectPort 1100
param **.source_011.app[0].startTime 0s
param **.source_011.app[0].idleInterval 1000s
param **.source_011.app[0].requestLength 1300B
param **.source_011.app[0].replyLength 20B
param **.source_011.app[0].thinkTime 0s
param **.source_011.app[0].numRequestsPerSession 91
param **.source_012.numApps 1
param **.source_012.app[0].typename "\"TcpBasicClientApp\""
param **.source_012.app[0].localAddress "\"\""
param **.source_012.app[0].connectAddress "\"sink_012\""
param **.source_012.app[0].connectPort 1100
param **.source_012.app[0].startTime 0s
param **.source_012.app[0].idleInterval 1000s
param **.source_012.app[0].requestLength 1300B
param **.source_012.app[0].replyLength 20B
param **.source_012.app[0].thinkTime 0s
param **.source_012.app[0].numRequestsPerSession 45
param **.source_013.numApps 1
param **.source_013.app[0].typename "\"TcpBasicClientApp\""
param **.source_013.app[0].localAddress "\"\""
param **.source_013.app[0].connectAddress "\"sink_013\""
param **.source_013.app[0].connectPort 1100
param **.source_013.app[0].startTime 0s
param **.source_013.app[0].idleInterval 1000s
param **.source_013.app[0].requestLength 1300B
param **.source_013.app[0].replyLength 20B
param **.source_013.app[0].thinkTime 0s
param **.source_013.app[0].numRequestsPerSession 11
param **.source_014.numApps 1
param **.source_014.app[0].typename "\"TcpBasicClientApp\""
param **.source_014.app[0].localAddress "\"\""
param **.source_014.app[0].connectAddress "\"sink_014\""
param **.source_014.app[0].connectPort 1100
param **.source_014.app[0].startTime 0s
param **.source_014.app[0].idleInterval 1000s
param **.source_014.app[0].requestLength 1300B
param **.source_014.app[0].replyLength 20B
param **.source_014.app[0].thinkTime 0s
param **.source_014.app[0].numRequestsPerSession 22
param **.source_015.numApps 1
param **.source_015.app[0].typename "\"TcpBasicClientApp\""
param **.source_015.app[0].localAddress "\"\""
param **.source_015.app[0].connectAddress "\"sink_015\""
param **.source_015.app[0].connectPort 1100
param **.source_015.app[0].startTime 0s
param **.source_015.app[0].idleInterval 1000s
param **.source_015.app[0].requestLength 1300B
param **.source_015.app[0].replyLength 20B
param **.source_015.app[0].thinkTime 0s
param **.source_015.app[0].numRequestsPerSession 17
param **.source_016.numApps 1
param **.source_016.app[0].typename "\"TcpBasicClientApp\""
param **.source_016.app[0].localAddress "\"\""
param **.source_016.app[0].connectAddress "\"sink_016\""
param **.source_016.app[0].connectPort 1100
param **.source_016.app[0].startTime 0s
param **.source_016.app[0].idleInterval 1000s
param **.source_016.app[0].requestLength 1300B
param **.source_016.app[0].replyLength 20B
param **.source_016.app[0].thinkTime 0s
param **.source_016.app[0].numRequestsPerSession 240
param **.source_017.numApps 1
param **.source_017.app[0].typename "\"TcpBasicClientApp\""
param **.source_017.app[0].localAddress "\"\""
param **.source_017.app[0].connectAddress "\"sink_017\""
param **.source_017.app[0].connectPort 1100
param **.source_017.app[0].startTime 0s
param **.source_017.app[0].idleInterval 1000s
param **.source_017.app[0].requestLength 1300B
param **.source_017.app[0].replyLength 20B
param **.source_017.app[0].thinkTime 0s
param **.source_017.app[0].numRequestsPerSession 5
param **.source_018.numApps 1
param **.source_018.app[0].typename "\"TcpBasicClientApp\""
param **.source_018.app[0].localAddress "\"\""
param **.source_018.app[0].connectAddress "\"sink_018\""
param **.source_018.app[0].connectPort 1100
param **.source_018.app[0].startTime 0s
param **.source_018.app[0].idleInterval 1000s
param **.source_018.app[0].requestLength 1300B
param **.source_018.app[0].replyLength 20B
param **.source_018.app[0].thinkTime 0s
param **.source_018.app[0].numRequestsPerSession 16
param **.source_019.numApps 1
param **.source_019.app[0].typename "\"TcpBasicClientApp\""
param **.source_019.app[0].localAddress "\"\""
param **.source_019.app[0].connectAddress "\"sink_019\""
param **.source_019.app[0].connectPort 1100
param **.source_019.app[0].startTime 0s
param **.source_019.app[0].idleInterval 1000s
param **.source_019.app[0].requestLength 1300B
param **.source_019.app[0].replyLength 20B
param **.source_019.app[0].thinkTime 0s
param **.source_019.app[0].numRequestsPerSession 2
param **.source_020.numApps 1
param **.source_020.app[0].typename "\"TcpBasicClientApp\""
param **.source_020.app[0].localAddress "\"\""
param **.source_020.app[0].connectAddress "\"sink_020\""
param **.source_020.app[0].connectPort 1100
param **.source_020.app[0].startTime 0s
param **.source_020.app[0].idleInterval 1000s
param **.source_020.app[0].requestLength 1300B
param **.source_020.app[0].replyLength 20B
param **.source_020.app[0].thinkTime 0s
param **.source_020.app[0].numRequestsPerSession 35
param **.source_021.numApps 1
param **.source_021.app[0].typename "\"TcpBasicClientApp\""
param **.source_021.app[0].localAddress "\"\""
param **.source_021.app[0].connectAddress "\"sink_021\""
param **.source_021.app[0].connectPort 1100
param **.source_021.app[0].startTime 0s
param **.source_021.app[0].idleInterval 1000s
param **.source_021.app[0].requestLength 1300B
param **.source_021.app[0].replyLength 20B
param **.source_021.app[0].thinkTime 0s
param **.source_021.app[0].numRequestsPerSession 57
param **.source_022.numApps 1
param **.source_022.app[0].typename "\"TcpBasicClientApp\""
param **.source_022.app[0].localAddress "\"\""
param **.source_022.app[0].connectAddress "\"sink_022\""
param **.source_022.app[0].connectPort 1100
param **.source_022.app[0].startTime 0s
param **.source_022.app[0].idleInterval 1000s
param **.source_022.app[0].requestLength 1300B
param **.source_022.app[0].replyLength 20B
param **.source_022.app[0].thinkTime 0s
param **.source_022.app[0].numRequestsPerSession 2
param **.source_023.numApps 1
param **.source_023.app[0].typename "\"TcpBasicClientApp\""
param **.source_023.app[0].localAddress "\"\""
param **.source_023.app[0].connectAddress "\"sink_023\""
param **.source_023.app[0].connectPort 1100
param **.source_023.app[0].startTime 0s
param **.source_023.app[0].idleInterval 1000s
param **.source_023.app[0].requestLength 1300B
param **.source_023.app[0].replyLength 20B
param **.source_023.app[0].thinkTime 0s
param **.source_023.app[0].numRequestsPerSession 323
param **.source_024.numApps 1
param **.source_024.app[0].typename "\"TcpBasicClientApp\""
param **.source_024.app[0].localAddress "\"\""
param **.source_024.app[0].connectAddress "\"sink_024\""
param **.source_024.app[0].connectPort 1100
param **.source_024.app[0].startTime 0s
param **.source_024.app[0].idleInterval 1000s
param **.source_024.app[0].requestLength 1300B
param **.source_024.app[0].replyLength 20B
param **.source_024.app[0].thinkTime 0s
param **.source_024.app[0].numRequestsPerSession 9
param **.source_025.numApps 1
param **.source_025.app[0].typename "\"TcpBasicClientApp\""
param **.source_025.app[0].localAddress "\"\""
param **.source_025.app[0].connectAddress "\"sink_025\""
param **.source_025.app[0].connectPort 1100
param **.source_025.app[0].startTime 0s
param **.source_025.app[0].idleInterval 1000s
param **.source_025.app[0].requestLength 1300B
param **.source_025.app[0].replyLength 20B
param **.source_025.app[0].thinkTime 0s
param **.source_025.app[0].numRequestsPerSession 5
param **.source_026.numApps 1
param **.source_026.app[0].typename "\"TcpBasicClientApp\""
param **.source_026.app[0].localAddress "\"\""
param **.source_026.app[0].connectAddress "\"sink_026\""
param **.source_026.app[0].connectPort 1100
param **.source_026.app[0].startTime 0s
param **.source_026.app[0].idleInterval 1000s
param **.source_026.app[0].requestLength 1300B
param **.source_026.app[0].replyLength 20B
param **.source_026.app[0].thinkTime 0s
param **.source_026.app[0].numRequestsPerSession 263
param **.source_027.numApps 1
param **.source_027.app[0].typename "\"TcpBasicClientApp\""
param **.source_027.app[0].localAddress "\"\""
param **.source_027.app[0].connectAddress "\"sink_027\""
param **.source_027.app[0].connectPort 1100
param **.source_027.app[0].startTime 0s
param **.source_027.app[0].idleInterval 1000s
param **.source_027.app[0].requestLength 1300B
param **.source_027.app[0].replyLength 20B
param **.source_027.app[0].thinkTime 0s
param **.source_027.app[0].numRequestsPerSession 227
param **.source_028.numApps 1
param **.source_028.app[0].typename "\"TcpBasicClientApp\""
param **.source_028.app[0].localAddress "\"\""
param **.source_028.app[0].connectAddress "\"sink_028\""
param **.source_028.app[0].connectPort 1100
param **.source_028.app[0].startTime 0s
param **.source_028.app[0].idleInterval 1000s
param **.source_028.app[0].requestLength 1300B
param **.source_028.app[0].replyLength 20B
param **.source_028.app[0].thinkTime 0s
param **.source_028.app[0].numRequestsPerSession 11
param **.source_029.numApps 1
param **.source_029.app[0].typename "\"TcpBasicClientApp\""
param **.source_029.app[0].localAddress "\"\""
param **.source_029.app[0].connectAddress "\"sink_029\""
param **.source_029.app[0].connectPort 1100
param **.source_029.app[0].startTime 0s
param **.source_029.app[0].idleInterval 1000s
param **.source_029.app[0].requestLength 1300B
param **.source_029.app[0].replyLength 20B
param **.source_029.app[0].thinkTime 0s
param **.source_029.app[0].numRequestsPerSession 19
param **.source_030.numApps 1
param **.source_030.app[0].typename "\"TcpBasicClientApp\""
param **.source_030.app[0].localAddress "\"\""
param **.source_030.app[0].connectAddress "\"sink_030\""
param **.source_030.app[0].connectPort 1100
param **.source_030.app[0].startTime 0s
param **.source_030.app[0].idleInterval 1000s
param **.source_030.app[0].requestLength 1300B
param **.source_030.app[0].replyLength 20B
param **.source_030.app[0].thinkTime 0s
param **.source_030.app[0].numRequestsPerSession 1
param **.source_031.numApps 1
param **.source_031.app[0].typename "\"TcpBasicClientApp\""
param **.source_031.app[0].localAddress "\"\""
param **.source_031.app[0].connectAddress "\"sink_031\""
param **.source_031.app[0].connectPort 1100
param **.source_031.app[0].startTime 0s
param **.source_031.app[0].idleInterval 1000s
param **.source_031.app[0].requestLength 1300B
param **.source_031.app[0].replyLength 20B
param **.source_031.app[0].thinkTime 0s
param **.source_031.app[0].numRequestsPerSession 4
param **.source_032.numApps 1
param **.source_032.app[0].typename "\"TcpBasicClientApp\""
param **.source_032.app[0].localAddress "\"\""
param **.source_032.app[0].connectAddress "\"sink_032\""
param **.source_032.app[0].connectPort 1100
param **.source_032.app[0].startTime 0s
param **.source_032.app[0].idleInterval 1000s
param **.source_032.app[0].requestLength 1300B
param **.source_032.app[0].replyLength 20B
param **.source_032.app[0].thinkTime 0s
param **.source_032.app[0].numRequestsPerSession 12
param **.source_033.numApps 1
param **.source_033.app[0].typename "\"TcpBasicClientApp\""
param **.source_033.app[0].localAddress "\"\""
param **.source_033.app[0].connectAddress "\"sink_033\""
param **.source_033.app[0].connectPort 1100
param **.source_033.app[0].startTime 0s
param **.source_033.app[0].idleInterval 1000s
param **.source_033.app[0].requestLength 1300B
param **.source_033.app[0].replyLength 20B
param **.source_033.app[0].thinkTime 0s
param **.source_033.app[0].numRequestsPerSession 131
param **.source_034.numApps 1
param **.source_034.app[0].typename "\"TcpBasicClientApp\""
param **.source_034.app[0].localAddress "\"\""
param **.source_034.app[0].connectAddress "\"sink_034\""
param **.source_034.app[0].connectPort 1100
param **.source_034.app[0].startTime 0s
param **.source_034.app[0].idleInterval 1000s
param **.source_034.app[0].requestLength 1300B
param **.source_034.app[0].replyLength 20B
param **.source_034.app[0].thinkTime 0s
param **.source_034.app[0].numRequestsPerSession 92
param **.source_035.numApps 1
param **.source_035.app[0].typename "\"TcpBasicClientApp\""
param **.source_035.app[0].localAddress "\"\""
param **.source_035.app[0].connectAddress "\"sink_035\""
param **.source_035.app[0].connectPort 1100
param **.source_035.app[0].startTime 0s
param **.source_035.app[0].idleInterval 1000s
param **.source_035.app[0].requestLength 1300B
param **.source_035.app[0].replyLength 20B
param **.source_035.app[0].thinkTime 0s
param **.source_035.app[0].numRequestsPerSession 4
param **.source_036.numApps 1
param **.source_036.app[0].typename "\"TcpBasicClientApp\""
param **.source_036.app[0].localAddress "\"\""
param **.source_036.app[0].connectAddress "\"sink_036\""
param **.source_036.app[0].connectPort 1100
param **.source_036.app[0].startTime 0s
param **.source_036.app[0].idleInterval 1000s
param **.source_036.app[0].requestLength 1300B
param **.source_036.app[0].replyLength 20B
param **.source_036.app[0].thinkTime 0s
param **.source_036.app[0].numRequestsPerSession 4
param **.source_037.numApps 1
param **.source_037.app[0].typename "\"TcpBasicClientApp\""
param **.source_037.app[0].localAddress "\"\""
param **.source_037.app[0].connectAddress "\"sink_037\""
param **.source_037.app[0].connectPort 1100
param **.source_037.app[0].startTime 0s
param **.source_037.app[0].idleInterval 1000s
param **.source_037.app[0].requestLength 1300B
param **.source_037.app[0].replyLength 20B
param **.source_037.app[0].thinkTime 0s
param **.source_037.app[0].numRequestsPerSession 687
param **.source_038.numApps 1
param **.source_038.app[0].typename "\"TcpBasicClientApp\""
param **.source_038.app[0].localAddress "\"\""
param **.source_038.app[0].connectAddress "\"sink_038\""
param **.source_038.app[0].connectPort 1100
param **.source_038.app[0].startTime 0s
param **.source_038.app[0].idleInterval 1000s
param **.source_038.app[0].requestLength 1300B
param **.source_038.app[0].replyLength 20B
param **.source_038.app[0].thinkTime 0s
param **.source_038.app[0].numRequestsPerSession 3
param **.source_039.numApps 1
param **.source_039.app[0].typename "\"TcpBasicClientApp\""
param **.source_039.app[0].localAddress "\"\""
param **.source_039.app[0].connectAddress "\"sink_039\""
param **.source_039.app[0].connectPort 1100
param **.source_039.app[0].startTime 0s
param **.source_039.app[0].idleInterval 1000s
param **.source_039.app[0].requestLength 1300B
param **.source_039.app[0].replyLength 20B
param **.source_039.app[0].thinkTime 0s
param **.source_039.app[0].numRequestsPerSession 3
param **.source_040.numApps 1
param **.source_040.app[0].typename "\"TcpBasicClientApp\""
param **.source_040.app[0].localAddress "\"\""
param **.source_040.app[0].connectAddress "\"sink_040\""
param **.source_040.app[0].connectPort 1100
param **.source_040.app[0].startTime 0s
param **.source_040.app[0].idleInterval 1000s
param **.source_040.app[0].requestLength 1300B
param **.source_040.app[0].replyLength 20B
param **.source_040.app[0].thinkTime 0s
param **.source_040.app[0].numRequestsPerSession 47
param **.source_041.numApps 1
param **.source_041.app[0].typename "\"TcpBasicClientApp\""
param **.source_041.app[0].localAddress "\"\""
param **.source_041.app[0].connectAddress "\"sink_041\""
param **.source_041.app[0].connectPort 1100
param **.source_041.app[0].startTime 0s
param **.source_041.app[0].idleInterval 1000s
param **.source_041.app[0].requestLength 1300B
param **.source_041.app[0].replyLength 20B
param **.source_041.app[0].thinkTime 0s
param **.source_041.app[0].numRequestsPerSession 5
param **.source_042.numApps 1
param **.source_042.app[0].typename "\"TcpBasicClientApp\""
param **.source_042.app[0].localAddress "\"\""
param **.source_042.app[0].connectAddress "\"sink_042\""
param **.source_042.app[0].connectPort 1100
param **.source_042.app[0].startTime 0s
param **.source_042.app[0].idleInterval 1000s
param **.source_042.app[0].requestLength 1300B
param **.source_042.app[0].replyLength 20B
param **.source_042.app[0].thinkTime 0s
param **.source_042.app[0].numRequestsPerSession 1
param **.source_043.numApps 1
param **.source_043.app[0].typename "\"TcpBasicClientApp\""
param **.source_043.app[0].localAddress "\"\""
param **.source_043.app[0].connectAddress "\"sink_043\""
param **.source_043.app[0].connectPort 1100
param **.source_043.app[0].startTime 0s
param **.source_043.app[0].idleInterval 1000s
param **.source_043.app[0].requestLength 1300B
param **.source_043.app[0].replyLength 20B
param **.source_043.app[0].thinkTime 0s
param **.source_043.app[0].numRequestsPerSession 19
param **.source_044.numApps 1
param **.source_044.app[0].typename "\"TcpBasicClientApp\""
param **.source_044.app[0].localAddress "\"\""
param **.source_044.app[0].connectAddress "\"sink_044\""
param **.source_044.app[0].connectPort 1100
param **.source_044.app[0].startTime 0s
param **.source_044.app[0].idleInterval 1000s
param **.source_044.app[0].requestLength 1300B
param **.source_044.app[0].replyLength 20B
param **.source_044.app[0].thinkTime 0s
param **.source_044.app[0].numRequestsPerSession 3
param **.source_045.numApps 1
param **.source_045.app[0].typename "\"TcpBasicClientApp\""
param **.source_045.app[0].localAddress "\"\""
param **.source_045.app[0].connectAddress "\"sink_045\""
param **.source_045.app[0].connectPort 1100
param **.source_045.app[0].startTime 0s
param **.source_045.app[0].idleInterval 1000s
param **.source_045.app[0].requestLength 1300B
param **.source_045.app[0].replyLength 20B
param **.source_045.app[0].thinkTime 0s
param **.source_045.app[0].numRequestsPerSession 8
param **.source_046.numApps 1
param **.source_046.app[0].typename "\"TcpBasicClientApp\""
param **.source_046.app[0].localAddress "\"\""
param **.source_046.app[0].connectAddress "\"sink_046\""
param **.source_046.app[0].connectPort 1100
param **.source_046.app[0].startTime 0s
param **.source_046.app[0].idleInterval 1000s
param **.source_046.app[0].requestLength 1300B
param **.source_046.app[0].replyLength 20B
param **.source_046.app[0].thinkTime 0s
param **.source_046.app[0].numRequestsPerSession 21
param **.source_047.numApps 1
param **.source_047.app[0].typename "\"TcpBasicClientApp\""
param **.source_047.app[0].localAddress "\"\""
param **.source_047.app[0].connectAddress "\"sink_047\""
param **.source_047.app[0].connectPort 1100
param **.source_047.app[0].startTime 0s
param **.source_047.app[0].idleInterval 1000s
param **.source_047.app[0].requestLength 1300B
param **.source_047.app[0].replyLength 20B
param **.source_047.app[0].thinkTime 0s
param **.source_047.app[0].numRequestsPerSession 9
param **.source_048.numApps 1
param **.source_048.app[0].typename "\"TcpBasicClientApp\""
param **.source_048.app[0].localAddress "\"\""
param **.source_048.app[0].connectAddress "\"sink_048\""
param **.source_048.app[0].connectPort 1100
param **.source_048.app[0].startTime 0s
param **.source_048.app[0].idleInterval 1000s
param **.source_048.app[0].requestLength 1300B
param **.source_048.app[0].replyLength 20B
param **.source_048.app[0].thinkTime 0s
param **.source_048.app[0].numRequestsPerSession 16
param **.source_049.numApps 1
param **.source_049.app[0].typename "\"TcpBasicClientApp\""
param **.source_049.app[0].localAddress "\"\""
param **.source_049.app[0].connectAddress "\"sink_049\""
param **.source_049.app[0].connectPort 1100
param **.source_049.app[0].startTime 0s
param **.source_049.app[0].idleInterval 1000s
param **.source_049.app[0].requestLength 1300B
param **.source_049.app[0].replyLength 20B
param **.source_049.app[0].thinkTime 0s
param **.source_049.app[0].numRequestsPerSession 2
param **.source_050.numApps 1
param **.source_050.app[0].typename "\"TcpBasicClientApp\""
param **.source_050.app[0].localAddress "\"\""
param **.source_050.app[0].connectAddress "\"sink_050\""
param **.source_050.app[0].connectPort 1100
param **.source_050.app[0].startTime 0s
param **.source_050.app[0].idleInterval 1000s
param **.source_050.app[0].requestLength 1300B
param **.source_050.app[0].replyLength 20B
param **.source_050.app[0].thinkTime 0s
param **.source_050.app[0].numRequestsPerSession 4
param **.source_051.numApps 1
param **.source_051.app[0].typename "\"TcpBasicClientApp\""
param **.source_051.app[0].localAddress "\"\""
param **.source_051.app[0].connectAddress "\"sink_051\""
param **.source_051.app[0].connectPort 1100
param **.source_051.app[0].startTime 0s
param **.source_051.app[0].idleInterval 1000s
param **.source_051.app[0].requestLength 1300B
param **.source_051.app[0].replyLength 20B
param **.source_051.app[0].thinkTime 0s
param **.source_051.app[0].numRequestsPerSession 2
param **.source_052.numApps 1
param **.source_052.app[0].typename "\"TcpBasicClientApp\""
param **.source_052.app[0].localAddress "\"\""
param **.source_052.app[0].connectAddress "\"sink_052\""
param **.source_052.app[0].connectPort 1100
param **.source_052.app[0].startTime 0s
param **.source_052.app[0].idleInterval 1000s
param **.source_052.app[0].requestLength 1300B
param **.source_052.app[0].replyLength 20B
param **.source_052.app[0].thinkTime 0s
param **.source_052.app[0].numRequestsPerSession 4
param **.source_053.numApps 1
param **.source_053.app[0].typename "\"TcpBasicClientApp\""
param **.source_053.app[0].localAddress "\"\""
param **.source_053.app[0].connectAddress "\"sink_053\""
param **.source_053.app[0].connectPort 1100
param **.source_053.app[0].startTime 0s
param **.source_053.app[0].idleInterval 1000s
param **.source_053.app[0].requestLength 1300B
param **.source_053.app[0].replyLength 20B
param **.source_053.app[0].thinkTime 0s
param **.source_053.app[0].numRequestsPerSession 2
param **.source_054.numApps 1
param **.source_054.app[0].typename "\"TcpBasicClientApp\""
param **.source_054.app[0].localAddress "\"\""
param **.source_054.app[0].connectAddress "\"sink_054\""
param **.source_054.app[0].connectPort 1100
param **.source_054.app[0].startTime 0s
param **.source_054.app[0].idleInterval 1000s
param **.source_054.app[0].requestLength 1300B
param **.source_054.app[0].replyLength 20B
param **.source_054.app[0].thinkTime 0s
param **.source_054.app[0].numRequestsPerSession 12
param **.source_055.numApps 1
param **.source_055.app[0].typename "\"TcpBasicClientApp\""
param **.source_055.app[0].localAddress "\"\""
param **.source_055.app[0].connectAddress "\"sink_055\""
param **.source_055.app[0].connectPort 1100
param **.source_055.app[0].startTime 0s
param **.source_055.app[0].idleInterval 1000s
param **.source_055.app[0].requestLength 1300B
param **.source_055.app[0].replyLength 20B
param **.source_055.app[0].thinkTime 0s
param **.source_055.app[0].numRequestsPerSession 4
param **.source_056.numApps 1
param **.source_056.app[0].typename "\"TcpBasicClientApp\""
param **.source_056.app[0].localAddress "\"\""
param **.source_056.app[0].connectAddress "\"sink_056\""
param **.source_056.app[0].connectPort 1100
param **.source_056.app[0].startTime 0s
param **.source_056.app[0].idleInterval 1000s
param **.source_056.app[0].requestLength 1300B
param **.source_056.app[0].replyLength 20B
param **.source_056.app[0].thinkTime 0s
param **.source_056.app[0].numRequestsPerSession 23
param **.source_057.numApps 1
param **.source_057.app[0].typename "\"TcpBasicClientApp\""
param **.source_057.app[0].localAddress "\"\""
param **.source_057.app[0].connectAddress "\"sink_057\""
param **.source_057.app[0].connectPort 1100
param **.source_057.app[0].startTime 0s
param **.source_057.app[0].idleInterval 1000s
param **.source_057.app[0].requestLength 1300B
param **.source_057.app[0].replyLength 20B
param **.source_057.app[0].thinkTime 0s
param **.source_057.app[0].numRequestsPerSession 1
param **.source_058.numApps 1
param **.source_058.app[0].typename "\"TcpBasicClientApp\""
param **.source_058.app[0].localAddress "\"\""
param **.source_058.app[0].connectAddress "\"sink_058\""
param **.source_058.app[0].connectPort 1100
param **.source_058.app[0].startTime 0s
param **.source_058.app[0].idleInterval 1000s
param **.source_058.app[0].requestLength 1300B
param **.source_058.app[0].replyLength 20B
param **.source_058.app[0].thinkTime 0s
param **.source_058.app[0].numRequestsPerSession 9
param **.source_059.numApps 1
param **.source_059.app[0].typename "\"TcpBasicClientApp\""
param **.source_059.app[0].localAddress "\"\""
param **.source_059.app[0].connectAddress "\"sink_059\""
param **.source_059.app[0].connectPort 1100
param **.source_059.app[0].startTime 0s
param **.source_059.app[0].idleInterval 1000s
param **.source_059.app[0].requestLength 1300B
param **.source_059.app[0].replyLength 20B
param **.source_059.app[0].thinkTime 0s
param **.source_059.app[0].numRequestsPerSession 42
param **.source_060.numApps 1
param **.source_060.app[0].typename "\"TcpBasicClientApp\""
param **.source_060.app[0].localAddress "\"\""
param **.source_060.app[0].connectAddress "\"sink_060\""
param **.source_060.app[0].connectPort 1100
param **.source_060.app[0].startTime 0s
param **.source_060.app[0].idleInterval 1000s
param **.source_060.app[0].requestLength 1300B
param **.source_060.app[0].replyLength 20B
param **.source_060.app[0].thinkTime 0s
param **.source_060.app[0].numRequestsPerSession 11
param **.source_061.numApps 1
param **.source_061.app[0].typename "\"TcpBasicClientApp\""
param **.source_061.app[0].localAddress "\"\""
param **.source_061.app[0].connectAddress "\"sink_061\""
param **.source_061.app[0].connectPort 1100
param **.source_061.app[0].startTime 0s
param **.source_061.app[0].idleInterval 1000s
param **.source_061.app[0].requestLength 1300B
param **.source_061.app[0].replyLength 20B
param **.source_061.app[0].thinkTime 0s
param **.source_061.app[0].numRequestsPerSession 107
param **.source_062.numApps 1
param **.source_062.app[0].typename "\"TcpBasicClientApp\""
param **.source_062.app[0].localAddress "\"\""
param **.source_062.app[0].connectAddress "\"sink_062\""
param **.source_062.app[0].connectPort 1100
param **.source_062.app[0].startTime 0s
param **.source_062.app[0].idleInterval 1000s
param **.source_062.app[0].requestLength 1300B
param **.source_062.app[0].replyLength 20B
param **.source_062.app[0].thinkTime 0s
param **.source_062.app[0].numRequestsPerSession 20
param **.source_063.numApps 1
param **.source_063.app[0].typename "\"TcpBasicClientApp\""
param **.source_063.app[0].localAddress "\"\""
param **.source_063.app[0].connectAddress "\"sink_063\""
param **.source_063.app[0].connectPort 1100
param **.source_063.app[0].startTime 0s
param **.source_063.app[0].idleInterval 1000s
param **.source_063.app[0].requestLength 1300B
param **.source_063.app[0].replyLength 20B
param **.source_063.app[0].thinkTime 0s
param **.source_063.app[0].numRequestsPerSession 2
param **.source_064.numApps 1
param **.source_064.app[0].typename "\"TcpBasicClientApp\""
param **.source_064.app[0].localAddress "\"\""
param **.source_064.app[0].connectAddress "\"sink_064\""
param **.source_064.app[0].connectPort 1100
param **.source_064.app[0].startTime 0s
param **.source_064.app[0].idleInterval 1000s
param **.source_064.app[0].requestLength 1300B
param **.source_064.app[0].replyLength 20B
param **.source_064.app[0].thinkTime 0s
param **.source_064.app[0].numRequestsPerSession 2
param **.source_065.numApps 1
param **.source_065.app[0].typename "\"TcpBasicClientApp\""
param **.source_065.app[0].localAddress "\"\""
param **.source_065.app[0].connectAddress "\"sink_065\""
param **.source_065.app[0].connectPort 1100
param **.source_065.app[0].startTime 0s
param **.source_065.app[0].idleInterval 1000s
param **.source_065.app[0].requestLength 1300B
param **.source_065.app[0].replyLength 20B
param **.source_065.app[0].thinkTime 0s
param **.source_065.app[0].numRequestsPerSession 3
param **.source_066.numApps 1
param **.source_066.app[0].typename "\"TcpBasicClientApp\""
param **.source_066.app[0].localAddress "\"\""
param **.source_066.app[0].connectAddress "\"sink_066\""
param **.source_066.app[0].connectPort 1100
param **.source_066.app[0].startTime 0s
param **.source_066.app[0].idleInterval 1000s
param **.source_066.app[0].requestLength 1300B
param **.source_066.app[0].replyLength 20B
param **.source_066.app[0].thinkTime 0s
param **.source_066.app[0].numRequestsPerSession 4
param **.source_067.numApps 1
param **.source_067.app[0].typename "\"TcpBasicClientApp\""
param **.source_067.app[0].localAddress "\"\""
param **.source_067.app[0].connectAddress "\"sink_067\""
param **.source_067.app[0].connectPort 1100
param **.source_067.app[0].startTime 0s
param **.source_067.app[0].idleInterval 1000s
param **.source_067.app[0].requestLength 1300B
param **.source_067.app[0].replyLength 20B
param **.source_067.app[0].thinkTime 0s
param **.source_067.app[0].numRequestsPerSession 9
param **.source_068.numApps 1
param **.source_068.app[0].typename "\"TcpBasicClientApp\""
param **.source_068.app[0].localAddress "\"\""
param **.source_068.app[0].connectAddress "\"sink_068\""
param **.source_068.app[0].connectPort 1100
param **.source_068.app[0].startTime 0s
param **.source_068.app[0].idleInterval 1000s
param **.source_068.app[0].requestLength 1300B
param **.source_068.app[0].replyLength 20B
param **.source_068.app[0].thinkTime 0s
param **.source_068.app[0].numRequestsPerSession 62
param **.source_069.numApps 1
param **.source_069.app[0].typename "\"TcpBasicClientApp\""
param **.source_069.app[0].localAddress "\"\""
param **.source_069.app[0].connectAddress "\"sink_069\""
param **.source_069.app[0].connectPort 1100
param **.source_069.app[0].startTime 0s
param **.source_069.app[0].idleInterval 1000s
param **.source_069.app[0].requestLength 1300B
param **.source_069.app[0].replyLength 20B
param **.source_069.app[0].thinkTime 0s
param **.source_069.app[0].numRequestsPerSession 23
param **.source_070.numApps 1
param **.source_070.app[0].typename "\"TcpBasicClientApp\""
param **.source_070.app[0].localAddress "\"\""
param **.source_070.app[0].connectAddress "\"sink_070\""
param **.source_070.app[0].connectPort 1100
param **.source_070.app[0].startTime 0s
param **.source_070.app[0].idleInterval 1000s
param **.source_070.app[0].requestLength 1300B
param **.source_070.app[0].replyLength 20B
param **.source_070.app[0].thinkTime 0s
param **.source_070.app[0].numRequestsPerSession 237
param **.source_071.numApps 1
param **.source_071.app[0].typename "\"TcpBasicClientApp\""
param **.source_071.app[0].localAddress "\"\""
param **.source_071.app[0].connectAddress "\"sink_071\""
param **.source_071.app[0].connectPort 1100
param **.source_071.app[0].startTime 0s
param **.source_071.app[0].idleInterval 1000s
param **.source_071.app[0].requestLength 1300B
param **.source_071.app[0].replyLength 20B
param **.source_071.app[0].thinkTime 0s
param **.source_071.app[0].numRequestsPerSession 143
param **.source_072.numApps 1
param **.source_072.app[0].typename "\"TcpBasicClientApp\""
param **.source_072.app[0].localAddress "\"\""
param **.source_072.app[0].connectAddress "\"sink_072\""
param **.source_072.app[0].connectPort 1100
param **.source_072.app[0].startTime 0s
param **.source_072.app[0].idleInterval 1000s
param **.source_072.app[0].requestLength 1300B
param **.source_072.app[0].replyLength 20B
param **.source_072.app[0].thinkTime 0s
param **.source_072.app[0].numRequestsPerSession 117
param **.source_073.numApps 1
param **.source_073.app[0].typename "\"TcpBasicClientApp\""
param **.source_073.app[0].localAddress "\"\""
param **.source_073.app[0].connectAddress "\"sink_073\""
param **.source_073.app[0].connectPort 1100
param **.source_073.app[0].startTime 0s
param **.source_073.app[0].idleInterval 1000s
param **.source_073.app[0].requestLength 1300B
param **.source_073.app[0].replyLength 20B
param **.source_073.app[0].thinkTime 0s
param **.source_073.app[0].numRequestsPerSession 6
param **.source_074.numApps 1
param **.source_074.app[0].typename "\"TcpBasicClientApp\""
param **.source_074.app[0].localAddress "\"\""
param **.source_074.app[0].connectAddress "\"sink_074\""
param **.source_074.app[0].connectPort 1100
param **.source_074.app[0].startTime 0s
param **.source_074.app[0].idleInterval 1000s
param **.source_074.app[0].requestLength 1300B
param **.source_074.app[0].replyLength 20B
param **.source_074.app[0].thinkTime 0s
param **.source_074.app[0].numRequestsPerSession 88
param **.source_075.numApps 1
param **.source_075.app[0].typename "\"TcpBasicClientApp\""
param **.source_075.app[0].localAddress "\"\""
param **.source_075.app[0].connectAddress "\"sink_075\""
param **.source_075.app[0].connectPort 1100
param **.source_075.app[0].startTime 0s
param **.source_075.app[0].idleInterval 1000s
param **.source_075.app[0].requestLength 1300B
param **.source_075.app[0].replyLength 20B
param **.source_075.app[0].thinkTime 0s
param **.source_075.app[0].numRequestsPerSession 4
param **.source_076.numApps 1
param **.source_076.app[0].typename "\"TcpBasicClientApp\""
param **.source_076.app[0].localAddress "\"\""
param **.source_076.app[0].connectAddress "\"sink_076\""
param **.source_076.app[0].connectPort 1100
param **.source_076.app[0].startTime 0s
param **.source_076.app[0].idleInterval 1000s
param **.source_076.app[0].requestLength 1300B
param **.source_076.app[0].replyLength 20B
param **.source_076.app[0].thinkTime 0s
param **.source_076.app[0].numRequestsPerSession 129
param **.source_077.numApps 1
param **.source_077.app[0].typename "\"TcpBasicClientApp\""
param **.source_077.app[0].localAddress "\"\""
param **.source_077.app[0].connectAddress "\"sink_077\""
param **.source_077.app[0].connectPort 1100
param **.source_077.app[0].startTime 0s
param **.source_077.app[0].idleInterval 1000s
param **.source_077.app[0].requestLength 1300B
param **.source_077.app[0].replyLength 20B
param **.source_077.app[0].thinkTime 0s
param **.source_077.app[0].numRequestsPerSession 13
param **.source_078.numApps 1
param **.source_078.app[0].typename "\"TcpBasicClientApp\""
param **.source_078.app[0].localAddress "\"\""
param **.source_078.app[0].connectAddress "\"sink_078\""
param **.source_078.app[0].connectPort 1100
param **.source_078.app[0].startTime 0s
param **.source_078.app[0].idleInterval 1000s
param **.source_078.app[0].requestLength 1300B
param **.source_078.app[0].replyLength 20B
param **.source_078.app[0].thinkTime 0s
param **.source_078.app[0].numRequestsPerSession 73
param **.source_079.numApps 1
param **.source_079.app[0].typename "\"TcpBasicClientApp\""
param **.source_079.app[0].localAddress "\"\""
param **.source_079.app[0].connectAddress "\"sink_079\""
param **.source_079.app[0].connectPort 1100
param **.source_079.app[0].startTime 0s
param **.source_079.app[0].idleInterval 1000s
param **.source_079.app[0].requestLength 1300B
param **.source_079.app[0].replyLength 20B
param **.source_079.app[0].thinkTime 0s
param **.source_079.app[0].numRequestsPerSession 18
param **.source_080.numApps 1
param **.source_080.app[0].typename "\"TcpBasicClientApp\""
param **.source_080.app[0].localAddress "\"\""
param **.source_080.app[0].connectAddress "\"sink_080\""
param **.source_080.app[0].connectPort 1100
param **.source_080.app[0].startTime 0s
param **.source_080.app[0].idleInterval 1000s
param **.source_080.app[0].requestLength 1300B
param **.source_080.app[0].replyLength 20B
param **.source_080.app[0].thinkTime 0s
param **.source_080.app[0].numRequestsPerSession 40
param **.source_081.numApps 1
param **.source_081.app[0].typename "\"TcpBasicClientApp\""
param **.source_081.app[0].localAddress "\"\""
param **.source_081.app[0].connectAddress "\"sink_081\""
param **.source_081.app[0].connectPort 1100
param **.source_081.app[0].startTime 0s
param **.source_081.app[0].idleInterval 1000s
param **.source_081.app[0].requestLength 1300B
param **.source_081.app[0].replyLength 20B
param **.source_081.app[0].thinkTime 0s
param **.source_081.app[0].numRequestsPerSession 8
param **.source_082.numApps 1
param **.source_082.app[0].typename "\"TcpBasicClientApp\""
param **.source_082.app[0].localAddress "\"\""
param **.source_082.app[0].connectAddress "\"sink_082\""
param **.source_082.app[0].connectPort 1100
param **.source_082.app[0].startTime 0s
param **.source_082.app[0].idleInterval 1000s
param **.source_082.app[0].requestLength 1300B
param **.source_082.app[0].replyLength 20B
param **.source_082.app[0].thinkTime 0s
param **.source_082.app[0].numRequestsPerSession 280
param **.source_083.numApps 1
param **.source_083.app[0].typename "\"TcpBasicClientApp\""
param **.source_083.app[0].localAddress "\"\""
param **.source_083.app[0].connectAddress "\"sink_083\""
param **.source_083.app[0].connectPort 1100
param **.source_083.app[0].startTime 0s
param **.source_083.app[0].idleInterval 1000s
param **.source_083.app[0].requestLength 1300B
param **.source_083.app[0].replyLength 20B
param **.source_083.app[0].thinkTime 0s
param **.source_083.app[0].numRequestsPerSession 11
param **.source_084.numApps 1
param **.source_084.app[0].typename "\"TcpBasicClientApp\""
param **.source_084.app[0].localAddress "\"\""
param **.source_084.app[0].connectAddress "\"sink_084\""
param **.source_084.app[0].connectPort 1100
param **.source_084.app[0].startTime 0s
param **.source_084.app[0].idleInterval 1000s
param **.source_084.app[0].requestLength 1300B
param **.source_084.app[0].replyLength 20B
param **.source_084.app[0].thinkTime 0s
param **.source_084.app[0].numRequestsPerSession 20
param **.source_085.numApps 1
param **.source_085.app[0].typename "\"TcpBasicClientApp\""
param **.source_085.app[0].localAddress "\"\""
param **.source_085.app[0].connectAddress "\"sink_085\""
param **.source_085.app[0].connectPort 1100
param **.source_085.app[0].startTime 0s
param **.source_085.app[0].idleInterval 1000s
param **.source_085.app[0].requestLength 1300B
param **.source_085.app[0].replyLength 20B
param **.source_085.app[0].thinkTime 0s
param **.source_085.app[0].numRequestsPerSession 588
param **.source_086.numApps 1
param **.source_086.app[0].typename "\"TcpBasicClientApp\""
param **.source_086.app[0].localAddress "\"\""
param **.source_086.app[0].connectAddress "\"sink_086\""
param **.source_086.app[0].connectPort 1100
param **.source_086.app[0].startTime 0s
param **.source_086.app[0].idleInterval 1000s
param **.source_086.app[0].requestLength 1300B
param **.source_086.app[0].replyLength 20B
param **.source_086.app[0].thinkTime 0s
param **.source_086.app[0].numRequestsPerSession 72
param **.source_087.numApps 1
param **.source_087.app[0].typename "\"TcpBasicClientApp\""
param **.source_087.app[0].localAddress "\"\""
param **.source_087.app[0].connectAddress "\"sink_087\""
param **.source_087.app[0].connectPort 1100
param **.source_087.app[0].startTime 0s
param **.source_087.app[0].idleInterval 1000s
param **.source_087.app[0].requestLength 1300B
param **.source_087.app[0].replyLength 20B
param **.source_087.app[0].thinkTime 0s
param **.source_087.app[0].numRequestsPerSession 81
param **.tcp.mss 1400
param **.tcp.tcpAlgorithmClass "\"TcpReno\""
param **.tcp.crcMode "\"computed\""
param **.app[*].dataTransferMode "\"object\""

vector 0 VL2_8_4_2__jv_k_4_seed0.source_000.app[0] numActiveSessions:vector ETV
attr interpolationmode sample-hold
attr source sum(connect)
attr title "number of active sessions, vector"
vector 1 VL2_8_4_2__jv_k_4_seed0.source_001.app[0] numActiveSessions:vector ETV
attr interpolationmode sample-hold
attr source sum(connect)
attr title "number of active sessions, vector"
vector 2 VL2_8_4_2__jv_k_4_seed0.source_002.app[0] numActiveSessions:vector ETV
attr interpolationmode sample-hold
attr source sum(connect)
attr title "number of active sessions, vector"
vector 3 VL2_8_4_2__jv_k_4_seed0.source_003.app[0] numActiveSessions:vector ETV
attr interpolationmode sample-hold
attr source sum(connect)
attr title "number of active sessions, vector"
vector 4 VL2_8_4_2__jv_k_4_seed0.source_004.app[0] numActiveSessions:vector ETV
attr interpolationmode sample-hold
attr source sum(connect)
attr title "number of active sessions, vector"
vector 5 VL2_8_4_2__jv_k_4_seed0.source_005.app[0] numActiveSessions:vector ETV
attr interpolationmode sample-hold
attr source sum(connect)
attr title "number of active sessions, vector"
vector 6 VL2_8_4_2__jv_k_4_seed0.source_006.app[0] numActiveSessions:vector ETV
attr interpolationmode sample-hold
attr source sum(connect)
attr title "number of active sessions, vector"
vector 7 VL2_8_4_2__jv_k_4_seed0.source_007.app[0] numActiveSessions:vector ETV
attr interpolationmode sample-hold
attr source sum(connect)
attr title "number of active sessions, vector"
vector 8 VL2_8_4_2__jv_k_4_seed0.source_008.app[0] numActiveSessions:vector ETV
attr interpolationmode sample-hold
attr source sum(connect)
attr title "number of active sessions, vector"
vector 9 VL2_8_4_2__jv_k_4_seed0.source_009.app[0] numActiveSessions:vector ETV
attr interpolationmode sample-hold
attr source sum(connect)
attr title "number of active sessions, vector"
vector 10 VL2_8_4_2__jv_k_4_seed0.source_010.app[0] numActiveSessions:vector ETV
attr interpolationmode sample-hold
attr source sum(connect)
attr title "number of active sessions, vector"
vector 11 VL2_8_4_2__jv_k_4_seed0.source_011.app[0] numActiveSessions:vector ETV
attr interpolationmode sample-hold
attr source sum(connect)
attr title "number of active sessions, vector"
vector 12 VL2_8_4_2__jv_k_4_seed0.source_012.app[0] numActiveSessions:vector ETV
attr interpolationmode sample-hold
attr source sum(connect)
attr title "number of active sessions, vector"
vector 13 VL2_8_4_2__jv_k_4_seed0.source_013.app[0] numActiveSessions:vector ETV
attr interpolationmode sample-hold
attr source sum(connect)
attr title "number of active sessions, vector"
vector 14 VL2_8_4_2__jv_k_4_seed0.source_014.app[0] numActiveSessions:vector ETV
attr interpolationmode sample-hold
attr source sum(connect)
attr title "number of active sessions, vector"
vector 15 VL2_8_4_2__jv_k_4_seed0.source_015.app[0] numActiveSessions:vector ETV
attr interpolationmode sample-hold
attr source sum(connect)
attr title "number of active sessions, vector"
vector 16 VL2_8_4_2__jv_k_4_seed0.source_016.app[0] numActiveSessions:vector ETV
attr interpolationmode sample-hold
attr source sum(connect)
attr title "number of active sessions, vector"
vector 17 VL2_8_4_2__jv_k_4_seed0.source_017.app[0] numActiveSessions:vector ETV
attr interpolationmode sample-hold
attr source sum(connect)
attr title "number of active sessions, vector"
vector 18 VL2_8_4_2__jv_k_4_seed0.source_018.app[0] numActiveSessions:vector ETV
attr interpolationmode sample-hold
attr source sum(connect)
attr title "number of active sessions, vector"
vector 19 VL2_8_4_2__jv_k_4_seed0.source_019.app[0] numActiveSessions:vector ETV
attr interpolationmode sample-hold
attr source sum(connect)
attr title "number of active sessions, vector"
vector 20 VL2_8_4_2__jv_k_4_seed0.source_020.app[0] numActiveSessions:vector ETV
attr interpolationmode sample-hold
attr source sum(connect)
attr title "number of active sessions, vector"
vector 21 VL2_8_4_2__jv_k_4_seed0.source_021.app[0] numActiveSessions:vector ETV
attr interpolationmode sample-hold
attr source sum(connect)
attr title "number of active sessions, vector"
vector 22 VL2_8_4_2__jv_k_4_seed0.source_022.app[0] numActiveSessions:vector ETV
attr interpolationmode sample-hold
attr source sum(connect)
attr title "number of active sessions, vector"
vector 23 VL2_8_4_2__jv_k_4_seed0.source_023.app[0] numActiveSessions:vector ETV
attr interpolationmode sample-hold
attr source sum(connect)
attr title "number of active sessions, vector"
vector 24 VL2_8_4_2__jv_k_4_seed0.source_024.app[0] numActiveSessions:vector ETV
attr interpolationmode sample-hold
attr source sum(connect)
attr title "number of active sessions, vector"
vector 25 VL2_8_4_2__jv_k_4_seed0.source_025.app[0] numActiveSessions:vector ETV
attr interpolationmode sample-hold
attr source sum(connect)
attr title "number of active sessions, vector"
vector 26 VL2_8_4_2__jv_k_4_seed0.source_026.app[0] numActiveSessions:vector ETV
attr interpolationmode sample-hold
attr source sum(connect)
attr title "number of active sessions, vector"
vector 27 VL2_8_4_2__jv_k_4_seed0.source_027.app[0] numActiveSessions:vector ETV
attr interpolationmode sample-hold
attr source sum(connect)
attr title "number of active sessions, vector"
vector 28 VL2_8_4_2__jv_k_4_seed0.source_028.app[0] numActiveSessions:vector ETV
attr interpolationmode sample-hold
attr source sum(connect)
attr title "number of active sessions, vector"
vector 29 VL2_8_4_2__jv_k_4_seed0.source_029.app[0] numActiveSessions:vector ETV
attr interpolationmode sample-hold
attr source sum(connect)
attr title "number of active sessions, vector"
vector 30 VL2_8_4_2__jv_k_4_seed0.source_030.app[0] numActiveSessions:vector ETV
attr interpolationmode sample-hold
attr source sum(connect)
attr title "number of active sessions, vector"
vector 31 VL2_8_4_2__jv_k_4_seed0.source_031.app[0] numActiveSessions:vector ETV
attr interpolationmode sample-hold
attr source sum(connect)
attr title "number of active sessions, vector"
vector 32 VL2_8_4_2__jv_k_4_seed0.source_032.app[0] numActiveSessions:vector ETV
attr interpolationmode sample-hold
attr source sum(connect)
attr title "number of active sessions, vector"
vector 33 VL2_8_4_2__jv_k_4_seed0.source_033.app[0] numActiveSessions:vector ETV
attr interpolationmode sample-hold
attr source sum(connect)
attr title "number of active sessions, vector"
vector 34 VL2_8_4_2__jv_k_4_seed0.source_034.app[0] numActiveSessions:vector ETV
attr interpolationmode sample-hold
attr source sum(connect)
attr title "number of active sessions, vector"
vector 35 VL2_8_4_2__jv_k_4_seed0.source_035.app[0] numActiveSessions:vector ETV
attr interpolationmode sample-hold
attr source sum(connect)
attr title "number of active sessions, vector"
vector 36 VL2_8_4_2__jv_k_4_seed0.source_036.app[0] numActiveSessions:vector ETV
attr interpolationmode sample-hold
attr source sum(connect)
attr title "number of active sessions, vector"
vector 37 VL2_8_4_2__jv_k_4_seed0.source_037.app[0] numActiveSessions:vector ETV
attr interpolationmode sample-hold
attr source sum(connect)
attr title "number of active sessions, vector"
vector 38 VL2_8_4_2__jv_k_4_seed0.source_038.app[0] numActiveSessions:vector ETV
attr interpolationmode sample-hold
attr source sum(connect)
attr title "number of active sessions, vector"
vector 39 VL2_8_4_2__jv_k_4_seed0.source_039.app[0] numActiveSessions:vector ETV
attr interpolationmode sample-hold
attr source sum(connect)
attr title "number of active sessions, vector"
vector 40 VL2_8_4_2__jv_k_4_seed0.source_040.app[0] numActiveSessions:vector ETV
attr interpolationmode sample-hold
attr source sum(connect)
attr title "number of active sessions, vector"
vector 41 VL2_8_4_2__jv_k_4_seed0.source_041.app[0] numActiveSessions:vector ETV
attr interpolationmode sample-hold
attr source sum(connect)
attr title "number of active sessions, vector"
vector 42 VL2_8_4_2__jv_k_4_seed0.source_042.app[0] numActiveSessions:vector ETV
attr interpolationmode sample-hold
attr source sum(connect)
attr title "number of active sessions, vector"
vector 43 VL2_8_4_2__jv_k_4_seed0.source_043.app[0] numActiveSessions:vector ETV
attr interpolationmode sample-hold
attr source sum(connect)
attr title "number of active sessions, vector"
vector 44 VL2_8_4_2__jv_k_4_seed0.source_044.app[0] numActiveSessions:vector ETV
attr interpolationmode sample-hold
attr source sum(connect)
attr title "number of active sessions, vector"
vector 45 VL2_8_4_2__jv_k_4_seed0.source_045.app[0] numActiveSessions:vector ETV
attr interpolationmode sample-hold
attr source sum(connect)
attr title "number of active sessions, vector"
vector 46 VL2_8_4_2__jv_k_4_seed0.source_046.app[0] numActiveSessions:vector ETV
attr interpolationmode sample-hold
attr source sum(connect)
attr title "number of active sessions, vector"
vector 47 VL2_8_4_2__jv_k_4_seed0.source_047.app[0] numActiveSessions:vector ETV
attr interpolationmode sample-hold
attr source sum(connect)
attr title "number of active sessions, vector"
vector 48 VL2_8_4_2__jv_k_4_seed0.source_048.app[0] numActiveSessions:vector ETV
attr interpolationmode sample-hold
attr source sum(connect)
attr title "number of active sessions, vector"
vector 49 VL2_8_4_2__jv_k_4_seed0.source_049.app[0] numActiveSessions:vector ETV
attr interpolationmode sample-hold
attr source sum(connect)
attr title "number of active sessions, vector"
vector 50 VL2_8_4_2__jv_k_4_seed0.source_050.app[0] numActiveSessions:vector ETV
attr interpolationmode sample-hold
attr source sum(connect)
attr title "number of active sessions, vector"
vector 51 VL2_8_4_2__jv_k_4_seed0.source_051.app[0] numActiveSessions:vector ETV
attr interpolationmode sample-hold
attr source sum(connect)
attr title "number of active sessions, vector"
vector 52 VL2_8_4_2__jv_k_4_seed0.source_052.app[0] numActiveSessions:vector ETV
attr interpolationmode sample-hold
attr source sum(connect)
attr title "number of active sessions, vector"
vector 53 VL2_8_4_2__jv_k_4_seed0.source_053.app[0] numActiveSessions:vector ETV
attr interpolationmode sample-hold
attr source sum(connect)
attr title "number of active sessions, vector"
vector 54 VL2_8_4_2__jv_k_4_seed0.source_054.app[0] numActiveSessions:vector ETV
attr interpolationmode sample-hold
attr source sum(connect)
attr title "number of active sessions, vector"
vector 55 VL2_8_4_2__jv_k_4_seed0.source_055.app[0] numActiveSessions:vector ETV
attr interpolationmode sample-hold
attr source sum(connect)
attr title "number of active sessions, vector"
vector 56 VL2_8_4_2__jv_k_4_seed0.source_056.app[0] numActiveSessions:vector ETV
attr interpolationmode sample-hold
attr source sum(connect)
attr title "number of active sessions, vector"
vector 57 VL2_8_4_2__jv_k_4_seed0.source_057.app[0] numActiveSessions:vector ETV
attr interpolationmode sample-hold
attr source sum(connect)
attr title "number of active sessions, vector"
vector 58 VL2_8_4_2__jv_k_4_seed0.source_058.app[0] numActiveSessions:vector ETV
attr interpolationmode sample-hold
attr source sum(connect)
attr title "number of active sessions, vector"
vector 59 VL2_8_4_2__jv_k_4_seed0.source_059.app[0] numActiveSessions:vector ETV
attr interpolationmode sample-hold
attr source sum(connect)
attr title "number of active sessions, vector"
vector 60 VL2_8_4_2__jv_k_4_seed0.source_060.app[0] numActiveSessions:vector ETV
attr interpolationmode sample-hold
attr source sum(connect)
attr title "number of active sessions, vector"
vector 61 VL2_8_4_2__jv_k_4_seed0.source_061.app[0] numActiveSessions:vector ETV
attr interpolationmode sample-hold
attr source sum(connect)
attr title "number of active sessions, vector"
vector 62 VL2_8_4_2__jv_k_4_seed0.source_062.app[0] numActiveSessions:vector ETV
attr interpolationmode sample-hold
attr source sum(connect)
attr title "number of active sessions, vector"
vector 63 VL2_8_4_2__jv_k_4_seed0.source_063.app[0] numActiveSessions:vector ETV
attr interpolationmode sample-hold
attr source sum(connect)
attr title "number of active sessions, vector"
vector 64 VL2_8_4_2__jv_k_4_seed0.source_064.app[0] numActiveSessions:vector ETV
attr interpolationmode sample-hold
attr source sum(connect)
attr title "number of active sessions, vector"
vector 65 VL2_8_4_2__jv_k_4_seed0.source_065.app[0] numActiveSessions:vector ETV
attr interpolationmode sample-hold
attr source sum(connect)
attr title "number of active sessions, vector"
vector 66 VL2_8_4_2__jv_k_4_seed0.source_066.app[0] numActiveSessions:vector ETV
attr interpolationmode sample-hold
attr source sum(connect)
attr title "number of active sessions, vector"
vector 67 VL2_8_4_2__jv_k_4_seed0.source_067.app[0] numActiveSessions:vector ETV
attr interpolationmode sample-hold
attr source sum(connect)
attr title "number of active sessions, vector"
vector 68 VL2_8_4_2__jv_k_4_seed0.source_068.app[0] numActiveSessions:vector ETV
attr interpolationmode sample-hold
attr source sum(connect)
attr title "number of active sessions, vector"
vector 69 VL2_8_4_2__jv_k_4_seed0.source_069.app[0] numActiveSessions:vector ETV
attr interpolationmode sample-hold
attr source sum(connect)
attr title "number of active sessions, vector"
vector 70 VL2_8_4_2__jv_k_4_seed0.source_070.app[0] numActiveSessions:vector ETV
attr interpolationmode sample-hold
attr source sum(connect)
attr title "number of active sessions, vector"
vector 71 VL2_8_4_2__jv_k_4_seed0.source_071.app[0] numActiveSessions:vector ETV
attr interpolationmode sample-hold
attr source sum(connect)
attr title "number of active sessions, vector"
vector 72 VL2_8_4_2__jv_k_4_seed0.source_072.app[0] numActiveSessions:vector ETV
attr interpolationmode sample-hold
attr source sum(connect)
attr title "number of active sessions, vector"
vector 73 VL2_8_4_2__jv_k_4_seed0.source_073.app[0] numActiveSessions:vector ETV
attr interpolationmode sample-hold
attr source sum(connect)
attr title "number of active sessions, vector"
vector 74 VL2_8_4_2__jv_k_4_seed0.source_074.app[0] numActiveSessions:vector ETV
attr interpolationmode sample-hold
attr source sum(connect)
attr title "number of active sessions, vector"
vector 75 VL2_8_4_2__jv_k_4_seed0.source_075.app[0] numActiveSessions:vector ETV
attr interpolationmode sample-hold
attr source sum(connect)
attr title "number of active sessions, vector"
vector 76 VL2_8_4_2__jv_k_4_seed0.source_076.app[0] numActiveSessions:vector ETV
attr interpolationmode sample-hold
attr source sum(connect)
attr title "number of active sessions, vector"
vector 77 VL2_8_4_2__jv_k_4_seed0.source_077.app[0] numActiveSessions:vector ETV
attr interpolationmode sample-hold
attr source sum(connect)
attr title "number of active sessions, vector"
vector 78 VL2_8_4_2__jv_k_4_seed0.source_078.app[0] numActiveSessions:vector ETV
attr interpolationmode sample-hold
attr source sum(connect)
attr title "number of active sessions, vector"
vector 79 VL2_8_4_2__jv_k_4_seed0.source_079.app[0] numActiveSessions:vector ETV
attr interpolationmode sample-hold
attr source sum(connect)
attr title "number of active sessions, vector"
vector 80 VL2_8_4_2__jv_k_4_seed0.source_080.app[0] numActiveSessions:vector ETV
attr interpolationmode sample-hold
attr source sum(connect)
attr title "number of active sessions, vector"
vector 81 VL2_8_4_2__jv_k_4_seed0.source_081.app[0] numActiveSessions:vector ETV
attr interpolationmode sample-hold
attr source sum(connect)
attr title "number of active sessions, vector"
vector 82 VL2_8_4_2__jv_k_4_seed0.source_082.app[0] numActiveSessions:vector ETV
attr interpolationmode sample-hold
attr source sum(connect)
attr title "number of active sessions, vector"
vector 83 VL2_8_4_2__jv_k_4_seed0.source_083.app[0] numActiveSessions:vector ETV
attr interpolationmode sample-hold
attr source sum(connect)
attr title "number of active sessions, vector"
vector 84 VL2_8_4_2__jv_k_4_seed0.source_084.app[0] numActiveSessions:vector ETV
attr interpolationmode sample-hold
attr source sum(connect)
attr title "number of active sessions, vector"
vector 85 VL2_8_4_2__jv_k_4_seed0.source_085.app[0] numActiveSessions:vector ETV
[...]
attr interpolationmode none
attr source dataAge(packetReceived)
attr title "end-to-end delay, vector"
attr unit s
vector 263 VL2_8_4_2__jv_k_4_seed0.source_069.app[0] endToEndDelay:vector ETV
attr interpolationmode none
attr source dataAge(packetReceived)
attr title "end-to-end delay, vector"
attr unit s
0	114008 29 89 819469 0 4.502092 2 0 1 1 1
1	114037 29 90 103882 0 0.160242 2 0 1 1 1
2	114066 29 91 378432 0 0.849775 2 0 1 1 1
3	114095 28 92 653193 0 2.31987 2 0 1 1 1
4	114123 29 93 853743 0 5.641106 2 0 1 1 1
5	114152 28 94 11092 0 0.013785 2 0 1 1 1
6	114180 29 95 345167 0 0.745489 2 0 1 1 1
7	114209 28 96 55099 0 0.080764 2 0 1 1 1
8	114237 28 97 62737 0 0.092408 2 0 1 1 1
9	114265 29 98 154440 0 0.258901 2 0 1 1 1
10	114294 30 99 90857 0 0.138623 2 0 1 1 1
11	114324 32 100 412574 0 0.974889 2 0 1 1 1
12	114356 31 101 270261 0 0.53143 2 0 1 1 1
13	114387 31 102 100444 0 0.15451 2 0 1 1 1
14	114418 32 103 170031 0 0.291507 2 0 1 1 1
15	114450 32 104 137364 0 0.225217 2 0 1 1 1
16	114482 32 105 673790 0 2.471687 2 0 1 1 1
17	114514 31 106 57391 0 0.084266 2 0 1 1 1
18	114545 32 107 139668 0 0.229466 2 0 1 1 1
19	114577 31 108 28111 0 0.040158 2 0 1 1 1
20	114608 32 109 227951 0 0.422531 2 0 1 1 1
21	114640 32 110 316521 0 0.659756 2 0 1 1 1
22	114672 31 111 30511 0 0.044123 2 0 1 1 1
23	114703 32 112 745773 0 3.274903 2 0 1 1 1
24	114735 31 113 92301 0 0.141218 2 0 1 1 1
25	114766 31 114 44792 0 0.065387 2 0 1 1 1
26	114797 30 115 701583 0 2.7237 2 0 1 1 1
27	114827 31 116 656668 0 2.34276 2 0 1 1 1
28	114858 31 117 78415 0 0.117687 2 0 1 1 1
29	114889 32 118 161972 0 0.273716 2 0 1 1 1
30	114921 31 119 16069 0 0.021827 2 0 1 1 1
31	114952 31 120 50744 0 0.074174 2 0 1 1 1
32	114983 32 121 117838 0 0.186402 2 0 1 1 1
33	115015 32 122 431819 0 1.054699 2 0 1 1 1
34	115047 32 123 386247 0 0.876155 2 0 1 1 1
35	115079 31 124 31972 0 0.046397 2 0 1 1 1
36	115110 31 125 45063 0 0.065857 2 0 1 1 1
37	115141 32 126 822755 0 4.569065 2 0 1 1 1
38	115173 31 127 30962 0 0.044688 2 0 1 1 1
39	115204 30 128 33639 0 0.04856 2 0 1 1 1
40	115234 32 129 213557 0 0.389178 2 0 1 1 1
41	115266 31 130 39391 0 0.057179 2 0 1 1 1
42	115297 30 131 15400 0 0.02092 2 0 1 1 1
43	115327 32 132 104816 0 0.161757 2 0 1 1 1
44	115359 31 133 63984 0 0.094138 2 0 1 1 1
45	115390 32 134 133679 0 0.218314 2 0 1 1 1
46	115422 32 135 228988 0 0.424939 2 0 1 1 1
47	115454 32 136 146726 0 0.243326 2 0 1 1 1
48	115486 32 137 200552 0 0.359173 2 0 1 1 1
49	115518 31 138 42854 0 0.062002 2 0 1 1 1
50	115549 31 139 90044 0 0.137158 2 0 1 1 1
51	115580 31 140 48728 0 0.071178 2 0 1 1 1
52	115611 31 141 87976 0 0.133546 2 0 1 1 1
53	115642 31 142 52636 0 0.076935 2 0 1 1 1
54	115673 32 143 170561 0 0.292612 2 0 1 1 1
55	115705 31 144 86378 0 0.130899 2 0 1 1 1
56	115736 31 145 239361 0 0.45068 2 0 1 1 1
57	115767 31 146 23750 0 0.033894 2 0 1 1 1
58	115798 30 147 147532 0 0.2448 2 0 1 1 1
59	115828 32 148 316004 0 0.658614 2 0 1 1 1
60	115860 32 149 170691 0 0.292789 2 0 1 1 1
61	115892 32 150 489659 0 1.322801 2 0 1 1 1
62	115924 32 151 220790 0 0.405991 2 0 1 1 1
63	115956 31 152 51880 0 0.075875 2 0 1 1 1
64	115987 31 153 54532 0 0.080048 2 0 1 1 1
65	116018 31 154 77899 0 0.116771 2 0 1 1 1
66	116049 31 155 91193 0 0.139451 2 0 1 1 1
67	116080 32 156 151790 0 0.253258 2 0 1 1 1
68	116112 32 157 387815 0 0.881124 2 0 1 1 1
69	116144 32 158 241117 0 0.455022 2 0 1 1 1
70	116176 32 159 685275 0 2.567442 2 0 1 1 1
71	116208 32 160 548717 0 1.656647 2 0 1 1 1
72	116240 32 161 490203 0 1.324348 2 0 1 1 1
73	116272 31 162 61919 0 0.091189 2 0 1 1 1
74	116303 32 163 426119 0 1.029555 2 0 1 1 1
75	116335 31 164 47105 0 0.068838 2 0 1 1 1
76	116366 32 165 503617 0 1.395476 2 0 1 1 1
77	116398 32 166 120217 0 0.191405 2 0 1 1 1
78	116430 31 167 378633 0 0.85049 2 0 1 1 1
79	116461 32 168 159169 0 0.268478 2 0 1 1 1
80	116493 32 169 254621 0 0.490031 2 0 1 1 1
81	116525 31 170 94275 0 0.144118 2 0 1 1 1
82	116556 32 171 719584 0 2.924263 2 0 1 1 1
83	116588 31 172 82335 0 0.124016 2 0 1 1 1
84	116619 32 173 146678 0 0.243252 2 0 1 1 1
85	116651 32 174 857244 0 5.868788 2 0 1 1 1
86	116683 32 175 369803 0 0.822656 2 0 1 1 1
87	116715 32 176 396773 0 0.913586 2 0 1 1 1
88	116747 538 8111 103594 0.007094 0.159527 20 0.005835 0.008949 0.142209 0.001023222733
89	117285 134 8132 43547 0.007098 0.063423 5 0.005835 0.015274 0.055098 0.000653562792
90	117419 18876 8158 822677 0.007145 4.56835 687 0.005835 0.012396 4.0493029999999 0.023987573933
91	136295 537 8460 103882 0.007809 0.160242 20 0.000715 0.001877 0.016774 1.5582492e-05
92	136832 134 8482 44792 0.007813 0.065387 5 0.000715 0.003153 0.009026 1.9435836e-05
93	136966 18987 8510 822755 0.00786 4.569065 687 0.000715 0.002102 0.51845200000001 0.000416444552
94	155953 294 8674 78063 0.008492 0.116972 11 0.007025 0.016621 0.104168 0.001061349032
95	156247 107 8711 31233 0.008539 0.045348 4 0.007021 0.013409 0.038327 0.000389289367
96	156354 293 8995 78415 0.009207 0.117687 11 0.000715 0.002718 0.012052 1.7120464e-05
97	156647 107 9055 31972 0.009588 0.046397 4 0.001049 0.003405 0.006552 1.4895228e-05
98	156754 131 9146 38320 0.00998 0.055341 5 0.006537 0.01509 0.050912 0.000562187346
99	156885 80 9368 63196 0.010541 0.092948 3 0.008729 0.041446 0.088252 0.003243824286
100	156965 16412 9389 853673 0.010545 5.640057 568 0.008729 0.01145 4.981264 0.043714777432001
101	173377 3370 9448 489830 0.010592 1.323299 117 0.008729 0.021702 1.195662 0.012767926386
102	176747 306 9450 98970 0.010592 0.152013 11 0.008729 0.015431 0.126727 0.001507762783
103	177053 137 9542 39391 0.010695 0.057179 5 0.000715 0.001838 0.004698 5.423144e-06
104	177190 3752 9717 431631 0.01128 1.053658 131 0.005835 0.016402 0.927546 0.00686151151
105	180942 6621 9777 653050 0.011382 2.319155 230 0.008729 0.012318 2.14343 0.020056081052
106	187563 529 9800 104436 0.011421 0.161042 19 0.005835 0.01491 0.139052 0.001127444146
107	188092 16366 9877 853743 0.011594 5.641106 568 0.001049 0.004171 0.658026 0.000834930306
108	204458 306 10084 80934 0.011888 0.121901 11 0.008729 0.010779 0.105476 0.001015517314
109	204764 27 10180 10180 0.01208 0.01208 1 0.010111 0.010111 0.010111 0.000102232321
110	204791 6629 10205 653193 0.012097 2.31987 230 0.000715 0.002069 0.174675 0.000142554659
111	211420 3761 10278 431819 0.012214 1.054699 131 0.000715 0.003134 0.125388 0.0001447637
112	215181 534 10324 104816 0.012269 0.161757 19 0.000715 0.002006 0.021038 2.6907338e-05
113	215715 83 10365 63984 0.012376 0.094138 3 0.001049 0.001835 0.004074 5.883726e-06
114	215798 3368 10395 490203 0.012443 1.324348 117 0.001049 0.002203 0.126823 0.000140572129
115	219166 227 10502 133214 0.012776 0.217265 8 0.010862 0.042612 0.207802 0.006111291956
116	219393 6552 10523 656529 0.01278 2.342045 227 0.008729 0.015298 2.163423 0.020864242411
117	225945 1333 10743 213088 0.013227 0.38805 47 0.005835 0.01425 0.31274 0.00218959442
118	227278 306 10776 100444 0.013236 0.15451 11 0.001049 0.004005 0.02592 7.2096926e-05
119	227584 564 10870 146110 0.013329 0.242203 20 0.008729 0.013018 0.210548 0.00225038061
120	228148 475 10917 136871 0.01338 0.224027 17 0.008729 0.014548 0.18884 0.002136753466
121	228623 304 11024 82335 0.013608 0.124016 11 0.001049 0.00236 0.016677 2.7448815e-05
122	228927 28 11092 11092 0.013785 0.013785 1 0.001705 0.001705 0.001705 2.907025e-06
123	228955 226 11152 133679 0.013951 0.218314 8 0.001049 0.001175 0.008598 9.257672e-06
124	229181 1340 11247 213557 0.014276 0.389178 47 0.001049 0.003244 0.074673 0.000140682793
125	230521 166 11431 61053 0.014676 0.09014 6 0.012592 0.01478 0.081191 0.001102841635
126	230687 1970 11464 344587 0.01468 0.7437 69 0.008729 0.01266 0.646181 0.006107690869
127	232657 603 11496 228606 0.014724 0.42389 21 0.010582 0.039396 0.393486 0.0087810566
128	233260 1289 11542 269604 0.014774 0.529521 45 0.008729 0.014426 0.454207 0.004697256767
129	234549 6502 11573 656668 0.01481 2.34276 227 0.000715 0.003103 0.177623 0.000159308991
130	241051 560 11778 146678 0.015231 0.243252 20 0.001049 0.003327 0.030739 5.5924141e-05
131	241611 250 11941 90799 0.015615 0.138607 9 0.010198 0.020226 0.1229 0.001747324588
132	241861 1979 12002 345167 0.015729 0.745489 69 0.001049 0.002685 0.097288 0.000154338352
133	243840 601 12050 228988 0.01582 0.424939 21 0.001049 0.00239 0.029437 4.5848595e-05
134	244441 12929 12234 819387 0.016023 4.501043 447 0.008729 0.014148 3.958203 0.035147453085
135	257370 3718 12236 503453 0.016023 1.394427 129 0.008729 0.015632 1.25355 0.012410963886
136	261088 253 12305 145683 0.016071 0.240963 9 0.014004 0.039986 0.226599 0.006277463303
137	261341 166 12352 53599 0.016121 0.078439 6 0.00878 0.01405 0.066569 0.000757659413
138	261507 168 12392 61919 0.016138 0.091189 6 0.001049 0.001901 0.008033 1.1342057e-05
139	261675 619 12473 169614 0.016262 0.290458 22 0.008729 0.01542 0.249634 0.002898567534
140	262294 1287 12501 270261 0.01629 0.53143 45 0.001049 0.003884 0.07527 0.000152927852
141	263581 252 12641 92301 0.016664 0.141218 9 0.001049 0.003809 0.016502 3.9730034e-05
142	263833 7599 12772 701469 0.017009 2.722651 263 0.008729 0.015095 2.383268 0.021797732254
143	271432 12868 12803 819469 0.017072 4.502092 447 0.001049 0.004474 0.542014 0.000779565454
144	284300 3711 12805 503617 0.017072 1.395476 129 0.001049 0.002375 0.139757 0.000155036109
145	288011 624 12949 170031 0.017311 0.291507 22 0.001049 0.003917 0.039794 8.8414248e-05
146	288635 17000 13013 857174 0.01737 5.867739 588 0.008729 0.015354 5.241615 0.046946454359001
147	305635 112 13081 46430 0.017417 0.067789 4 0.013386 0.017167 0.061405 0.000949918719
148	305747 194 13144 61197 0.017468 0.090372 7 0.008794 0.015346 0.074672 0.00082811639
149	305941 84 13146 30235 0.017468 0.043954 3 0.010775 0.015652 0.039746 0.00053848149
150	306025 453 13244 200019 0.017559 0.358124 16 0.012891 0.04019 0.338926 0.008281448582
151	306478 6930 13296 673695 0.017609 2.470638 240 0.008729 0.015479 2.173378 0.0198574896
152	313408 252 13439 146726 0.017971 0.243326 9 0.001049 0.003656 0.01466 3.0174332e-05
153	313660 84 13524 30962 0.018183 0.044688 3 0.000715 0.001677 0.003126 3.86231e-06
154	313744 112 13610 47105 0.018466 0.068838 4 0.001049 0.002042 0.005213 7.521895e-06
155	313856 194 13633 62737 0.018517 0.092408 7 0.001049 0.003797 0.015614 4.0706664e-05
156	314050 2117 13792 378069 0.018764 0.848726 74 0.008729 0.016736 0.702644 0.006768173152
157	316167 366 13885 119681 0.018858 0.190356 13 0.011211 0.017167 0.174021 0.002382870879
158	316533 28 13887 13887 0.018858 0.018858 1 0.016889 0.016889 0.016889 0.000285238321
159	316561 56 13968 41920 0.018906 0.060698 2 0.016788 0.040743 0.057531 0.001941828993
160	316617 307 13996 88473 0.018909 0.13446 11 0.008729 0.016736 0.112679 0.001208079437
161	316924 27 13998 13998 0.018909 0.018909 1 0.01683 0.01683 0.01683 0.0002832489
162	316951 140 14063 55039 0.018956 0.080686 5 0.011524 0.016724 0.068207 0.000946919433
163	317091 479 14133 137364 0.019043 0.225217 17 0.001049 0.005663 0.034357 9.3747211e-05
164	317570 460 14191 200552 0.019114 0.359173 16 0.001049 0.001655 0.017976 2.0734672e-05
165	318030 16937 14278 857244 0.019251 5.868788 588 0.001049 0.002705 0.625157 0.000673121391
166	334967 166 14325 55099 0.019361 0.080764 6 0.001056 0.00324 0.012124 2.8118286e-05
167	335133 365 14520 120217 0.019907 0.191405 13 0.001049 0.00227 0.015113 1.8932535e-05
168	335498 56 14550 42854 0.019955 0.062002 2 0.001049 0.001304 0.002353 2.800817e-06
169	335554 308 14574 90857 0.019958 0.138623 11 0.001049 0.004163 0.023771 6.2156073e-05
170	335862 2063 14741 369446 0.020158 0.821607 72 0.008729 0.01804 0.717928 0.00727976339
171	337925 2644 14864 385628 0.020252 0.873745 92 0.005835 0.018032 0.640938 0.004714871528
172	340569 2528 14866 425737 0.020252 1.028459 88 0.008729 0.019076 0.921648 0.010014188368
173	343097 109 14971 86648 0.0203 0.131291 4 0.017978 0.040837 0.124796 0.004195582954
174	343206 2618 15000 412289 0.020303 0.97384 91 0.008729 0.018028 0.828076 0.007649212696
175	345824 448 15052 139031 0.02035 0.228256 16 0.009485 0.018028 0.188763 0.002304441695
176	346272 6932 15113 673790 0.020425 2.471687 240 0.001049 0.004873 0.296179 0.000421037097
177	353204 7504 15211 701583 0.020547 2.7237 263 0.001049 0.006099 0.338518 0.000533658588
178	360708 2121 15252 378432 0.020594 0.849775 74 0.001049 0.004383 0.145103 0.000338837407
179	362829 27 15400 15400 0.02092 0.02092 1 0.002011 0.002011 0.002011 4.044121e-06
180	362856 111 15530 87976 0.021349 0.133546 4 0.001049 0.002255 0.006428 1.1591452e-05
181	362967 2614 15553 412574 0.021352 0.974889 91 0.001049 0.003307 0.144538 0.000260957724
182	365581 2325 15629 396484 0.021505 0.912537 81 0.008729 0.019285 0.794374 0.007954187182
183	367906 534 15768 160678 0.021646 0.27147 19 0.008809 0.019528 0.217968 0.002635767744
184	368440 559 15796 152519 0.02165 0.254857 20 0.008729 0.019426 0.211578 0.002358853184
185	368999 83 15798 32212 0.02165 0.046742 3 0.010822 0.019783 0.042483 0.000649569657
186	369082 2091 15876 378337 0.021693 0.849441 73 0.008729 0.01932 0.758765 0.008126970095
187	371173 340 15878 169567 0.021693 0.290346 12 0.014502 0.040838 0.270743 0.006770744267
188	371513 1002 15923 227458 0.021697 0.421482 35 0.008729 0.019324 0.373132 0.00416989116
189	372515 28 16069 16069 0.021827 0.021827 1 0.002969 0.002969 0.002969 8.814961e-06
190	372543 137 16149 57391 0.021933 0.084266 5 0.001843 0.00358 0.013827 3.9809555e-05
191	372680 2640 16240 386247 0.022035 0.876155 92 0.001049 0.005106 0.232997 0.000727389037
192	375320 453 16263 139668 0.022047 0.229466 16 0.001089 0.003546 0.038381 0.000102431259
193	375773 2067 16294 369803 0.022075 0.822656 72 0.001049 0.004085 0.10261 0.000179318712
194	377840 2526 16319 426119 0.022086 1.029555 88 0.001049 0.003527 0.105585 0.000140977259
195	380366 82 16457 33639 0.022365 0.04856 3 0.000715 0.001818 0.00421 6.628678e-06
196	380448 2327 16535 396773 0.022554 0.913586 81 0.001049 0.004685 0.116992 0.000203179574
197	382775 2098 16600 378633 0.022742 0.85049 73 0.001049 0.003689 0.089352 0.000124098504
198	384873 340 16602 170561 0.022742 0.292612 12 0.001049 0.003301 0.019445 4.0078601e-05
199	385213 509 16946 158763 0.023091 0.267429 18 0.01013 0.020616 0.242807 0.003398346045
200	385722 112 16992 88311 0.023134 0.134126 4 0.020761 0.042114 0.128582 0.004392643182
201	385834 55 17021 27017 0.023138 0.038559 2 0.01273 0.020714 0.033444 0.000591122696
202	385889 1002 17477 227951 0.024054 0.422531 35 0.001049 0.003711 0.047026 7.490564e-05
203	386891 511 17528 159169 0.02414 0.268478 18 0.001049 0.002389 0.023196 3.3431608e-05
204	387402 111 17557 90044 0.024207 0.137158 4 0.001049 0.003032 0.006203 1.2545155e-05
205	387513 111 17705 44348 0.024391 0.064781 4 0.008729 0.022473 0.052849 0.000818735519
206	387624 110 17791 50010 0.024481 0.073181 4 0.0133 0.022312 0.067595 0.001190449301
207	387734 110 17840 85898 0.024528 0.12985 4 0.022002 0.03935 0.124076 0.004030393392
208	387844 56 17917 28875 0.024579 0.041347 2 0.014003 0.022104 0.036107 0.000684670825
209	387900 537 18027 161972 0.024682 0.273716 19 0.001071 0.004917 0.05363 0.000169062772
210	388437 569 18268 154440 0.025022 0.258901 20 0.001049 0.004381 0.045099 0.000123609323
211	389006 111 18411 50744 0.025196 0.074174 4 0.000715 0.001987 0.00441 5.956668e-06
212	389117 111 18579 86378 0.025577 0.130899 4 0.001049 0.00115 0.004297 4.623703e-06
213	389228 1143 18749 253834 0.025781 0.487695 40 0.008729 0.023255 0.432139 0.004908932545
214	390371 56 18875 28111 0.025829 0.040158 2 0.001599 0.002691 0.00429 9.798282e-06
215	390427 56 18965 46398 0.025922 0.067762 2 0.023447 0.040791 0.064238 0.00221366749
216	390483 1634 18986 315983 0.025926 0.658613 57 0.008729 0.0234 0.569602 0.005968573522
217	392117 56 19379 48728 0.026971 0.071178 2 0.001049 0.003416 0.004465 1.2769457e-05
218	392173 335 19543 116765 0.027175 0.184545 12 0.01117 0.024853 0.160112 0.002287770848
219	392508 1142 19694 254621 0.02729 0.490031 40 0.001049 0.003005 0.055366 8.658157e-05
220	393650 9244 19737 745628 0.02732 3.273854 323 0.008729 0.024743 2.927615 0.026943372211
221	402894 56 19771 30511 0.027344 0.044123 2 0.002765 0.002776 0.005541 1.5351401e-05
222	402950 1638 19890 316521 0.027518 0.659756 57 0.001049 0.003998 0.087628 0.000164780362
223	404588 111 20016 45063 0.027776 0.065857 4 0.001076 0.00443 0.01109 3.7076502e-05
224	404699 8068 20167 719411 0.028475 2.923214 280 0.008729 0.025898 2.623027 0.025384735191
225	412767 661 20452 238789 0.02871 0.449631 23 0.009717 0.04067 0.422056 0.009191573398
226	413428 9352 20697 745773 0.028942 3.274903 323 0.001049 0.001917 0.344711 0.000371664511
227	422780 658 21152 239361 0.029833 0.45068 23 0.001049 0.00169 0.026047 3.0223019e-05
228	423438 8090 21241 719584 0.029947 2.924263 280 0.001049 0.002003 0.298659 0.000321153647
229	431528 257 21507 147074 0.030171 0.243751 9 0.018454 0.036457 0.220651 0.005738635601
230	431785 219 22025 93593 0.03131 0.143069 8 0.011154 0.028682 0.132916 0.002397723134
231	432004 338 22344 117838 0.031636 0.186402 12 0.001049 0.004461 0.023968 5.9234964e-05
232	432342 222 22753 94275 0.032359 0.144118 8 0.001049 0.001136 0.008574 9.19619e-06
233	432564 255 22949 147532 0.032699 0.2448 9 0.001049 0.004406 0.021419 6.2110043e-05
234	432819 28 23097 23097 0.032845 0.032845 1 0.030166 0.030166 0.030166 0.000909987556
235	432847 28 23750 23750 0.033894 0.033894 1 0.001049 0.001049 0.001049 1.100401e-06
236	432875 56 23941 50178 0.034192 0.073385 2 0.031564 0.038093 0.069657 0.002447362745
237	432931 53 24557 52636 0.035292 0.076935 2 0.0011 0.00355 0.00465 1.38125e-05
238	432984 570 24878 220386 0.035633 0.404667 20 0.010103 0.035054 0.365012 0.00788420197
239	433554 571 25807 220790 0.036843 0.405991 20 0.001049 0.004121 0.038096 8.5581038e-05
240	434125 1206 25999 315356 0.037027 0.656964 42 0.008729 0.038097 0.589505 0.010544660681
241	435331 1202 26625 316004 0.038123 0.658614 42 0.001049 0.00377 0.066328 0.00012613134
242	436533 312 26870 170116 0.038421 0.29174 11 0.016968 0.038144 0.275661 0.007459394731
243	436845 313 27480 170691 0.03947 0.292789 11 0.001049 0.002223 0.014296 2.0169856e-05
244	437158 56 27688 51184 0.039768 0.074826 2 0.034009 0.036834 0.070843 0.002513355637
245	437214 56 28402 51880 0.040817 0.075875 2 0.001049 0.001049 0.002098 2.200802e-06
246	437270 55 28705 53926 0.041162 0.078961 2 0.03675 0.038126 0.074876 0.002804154376
247	437325 56 29262 54532 0.042211 0.080048 2 0.001049 0.001087 0.002136 2.28197e-06
248	437381 3083 29433 489374 0.042509 1.321752 107 0.008729 0.039524 1.190875 0.016421505517
249	440464 3085 30063 489659 0.043813 1.322801 107 0.001049 0.003757 0.128941 0.000180275295
250	443549 111 30206 90673 0.04395 0.138402 4 0.026644 0.040812 0.130631 0.004386725597
251	443660 255 31381 151330 0.045458 0.252209 9 0.020002 0.042269 0.238335 0.006796292903
252	443915 112 31758 91193 0.045922 0.139451 4 0.001049 0.001972 0.005682 8.68813e-06
253	444027 256 32008 151790 0.046507 0.253258 9 0.001049 0.003342 0.011734 1.9972172e-05
254	444283 84 32271 77366 0.046805 0.115722 3 0.027747 0.043718 0.109683 0.004141775057
255	444367 84 33164 77899 0.047854 0.116771 3 0.001049 0.001903 0.004001 5.822211e-06
256	444451 1781 33463 387615 0.048246 0.880075 62 0.008729 0.045006 0.792274 0.012978254322
257	446232 1782 33985 387815 0.049295 0.881124 62 0.001049 0.003696 0.08561 0.000147017088
258	448014 6848 34331 685096 0.04964 2.566393 237 0.008729 0.046298 2.308271 0.025971092179
259	454862 6820 34884 685275 0.050689 2.567442 237 0.001049 0.002671 0.255829 0.000284544627
260	461682 4114 35184 548470 0.051034 1.655598 143 0.008729 0.047641 1.501594 0.01932056869
261	465796 657 36106 240768 0.052381 0.453907 23 0.009893 0.04909 0.424078 0.009871996958
262	466453 4129 36611 548717 0.052895 1.656647 143 0.001049 0.001861 0.15166 0.000161946006
263	470582 659 37427 241117 0.054164 0.455022 23 0.001049 0.0023 0.027653 3.5989947e-05

